/*--------------------------------*- C++ -*----------------------------------*\
  =========                 |
  \\      /  F ield         | OpenFOAM: The Open Source CFD Toolbox
   \\    /   O peration     | Website:  https://openfoam.org
    \\  /    A nd           | Version:  10
     \\/     M anipulation  |
\*---------------------------------------------------------------------------*/
FoamFile
{
    format      ascii;
    class       polyBoundaryMesh;
    location    "constant/polyMesh";
    object      boundary;
}
// * * * * * * * * * * * * * * * * * * * * * * * * * * * * * * * * * * * * * //

6
(
    ymax
    {
        type            wall;
        inGroups        List<word> 1(wall);
        nFaces          2000;
        startFace       174400;
    }
    xmin
    {
        type            wall;
        inGroups        List<word> 1(wall);
        nFaces          600;
        startFace       176400;
    }
    xmax
    {
        type            wall;
        inGroups        List<word> 1(wall);
        nFaces          600;
        startFace       177000;
    }
    ymin
    {
        type            wall;
        inGroups        List<word> 1(wall);
        nFaces          2000;
        startFace       177600;
    }
    zmin
    {
        type            wall;
        inGroups        List<word> 1(wall);
        nFaces          3000;
        startFace       179600;
    }
    zmax
    {
        type            patch;
        nFaces          3000;
        startFace       182600;
    }
)

// ************************************************************************* //
