/*--------------------------------*- C++ -*----------------------------------*\
  =========                 |
  \\      /  F ield         | OpenFOAM: The Open Source CFD Toolbox
   \\    /   O peration     | Website:  https://openfoam.org
    \\  /    A nd           | Version:  10
     \\/     M anipulation  |
\*---------------------------------------------------------------------------*/
FoamFile
{
    format      ascii;
    class       dictionary;
    location    "system";
    object      setFieldsDict;
}
// * * * * * * * * * * * * * * * * * * * * * * * * * * * * * * * * * * * * * //

defaultFieldValues
(
    volScalarFieldValue alpha.air 1
    volScalarFieldValue alpha.other 0
    volScalarFieldValue alpha.water 0
);

regions
(
    /*
    spheresToCell
    {
        data
        (
            0.0 0.0 0.0 0.1 -1
            0.2 0.0 0.0 0.1 -1
        );
        fieldValues
        (
            volScalarFieldValue alpha.air 0
            volScalarFieldValue alpha.other 0.5
            volScalarFieldValue alpha.water 0.5
        );
    }
    */
    boxToCell
    {
        box (0 0 -1) (0.1461 0.25 1);
        fieldValues
        (
            volScalarFieldValue alpha.air 0
            volScalarFieldValue alpha.other 0
            volScalarFieldValue alpha.water 1
        );
    }
    boxToCell
    {
        box (0.1461 0 -1) (1 0.15 1);
        fieldValues
        (
            volScalarFieldValue alpha.air 0
            volScalarFieldValue alpha.other 1
            volScalarFieldValue alpha.water 0
        );
    }
);


// ************************************************************************* //
