/*--------------------------------*- C++ -*----------------------------------*\
  =========                 |
  \\      /  F ield         | OpenFOAM: The Open Source CFD Toolbox
   \\    /   O peration     | Website:  https://openfoam.org
    \\  /    A nd           | Version:  10
     \\/     M anipulation  |
\*---------------------------------------------------------------------------*/
FoamFile
{
    format      ascii;
    class       dictionary;
    location    "constant";
    object      phaseProperties;
}
// * * * * * * * * * * * * * * * * * * * * * * * * * * * * * * * * * * * * * //

phases          ( water air );

sigma
{
  type  temperatureDependent;
  sigma
  {
    type  polynomial;
    coeffs
    (
      (0.04 0)
      (-0.0001 1)
    );
  }
}

/*
sigma
{
    type constant;
    sigma 0.01;
}
*/

alphaSolid
{
    type errorFunction;
    Tliq 300.0;
    Tsol 298.0;
}
L   0.0;
DC  0.0;


// ************************************************************************* //
