/*--------------------------------*- C++ -*----------------------------------*\
  =========                 |
  \\      /  F ield         | OpenFOAM: The Open Source CFD Toolbox
   \\    /   O peration     | Website:  https://openfoam.org
    \\  /    A nd           | Version:  10
     \\/     M anipulation  |
\*---------------------------------------------------------------------------*/
FoamFile
{
    format      ascii;
    class       dictionary;
    location    "constant";
    object      phaseProperties;
}
// * * * * * * * * * * * * * * * * * * * * * * * * * * * * * * * * * * * * * //

phases (air other water);

// original
/*
sigma12 0.05;
sigma13 0.04;
*/

// constant surface tension

sigma12
{
    sigma 0.5;
}
sigma13
{
    sigma 0.4;
}


// temperature dependent surface tension
/*
sigma12         
{
    sigma
    {
      type  temperatureDependent;
      sigma
      {
        type  polynomial;
        coeffs
        (
          (0.05 0)
          (0.00 1)
        );
      }
    }
}

sigma13
{
    sigma
    {
      type  temperatureDependent;
      sigma
      {
        type  polynomial;
        coeffs
        (
          (0.04 0)
          (0.00 1)
        );
      }
    }
}
*/

// Diffusivity between miscible phases
D23             3e-05;

// ************************************************************************* //
