/*--------------------------------*- C++ -*----------------------------------*\
  =========                 |
  \\      /  F ield         | OpenFOAM: The Open Source CFD Toolbox
   \\    /   O peration     | Website:  https://openfoam.org
    \\  /    A nd           | Version:  10
     \\/     M anipulation  |
\*---------------------------------------------------------------------------*/
FoamFile
{
    format      ascii;
    class       dictionary;
    location    "constant";
    object      physicalProperties.water;
}
// * * * * * * * * * * * * * * * * * * * * * * * * * * * * * * * * * * * * * //

viscosityModel  constant;

nu              3.076e-7;
rho             6501.0;

Cp              770.0;
kappa           20.1;
beta            0.0;

L               267776.0;
alphaSolid 
{
    type        errorFunction;
    Tliq        1700.0;
    Tsol        1400.0;
}


// ************************************************************************* //
