/*--------------------------------*- C++ -*----------------------------------*\
  =========                 |
  \\      /  F ield         | OpenFOAM: The Open Source CFD Toolbox
   \\    /   O peration     | Website:  https://openfoam.org
    \\  /    A nd           | Version:  10
     \\/     M anipulation  |
\*---------------------------------------------------------------------------*/
FoamFile
{
    format      ascii;
    class       dictionary;
    location    "system";
    object      fvSolution;
}
// * * * * * * * * * * * * * * * * * * * * * * * * * * * * * * * * * * * * * //

solvers
{
    "alpha.steel.*"
    {
        nAlphaCorr      1;
        nAlphaSubCycles 2;
    }

    p_rgh
    {
        solver          GAMG;
        smoother        DICGaussSeidel;
        tolerance       1e-05;
        relTol          0.1;
        maxIter         50;
    }

    p_rghFinal
    {
        $p_rgh;
        tolerance       1e-07;
        relTol          0;
    }
    
    "pcorr.*"
    {
        $p_rgh
        tolerance       1e-10;
        relTol          0.0;
    }
    
    "U.*"
    {
        solver          PBiCGStab;
        preconditioner  DILU;
        tolerance       1e-6;
        relTol          0;
    }
    
    "T.*"
    {
        solver          PBiCGStab;
        preconditioner  DILU;
        tolerance       1e-6;
        relTol          0;
    }
}

PIMPLE
{
    momentumPredictor no;
    nCorrectors     3;
    nNonOrthogonalCorrectors 0;
    nOuterCorrectors 1;
}


// ************************************************************************* //
