/*--------------------------------*- C++ -*----------------------------------*\
  =========                 |
  \\      /  F ield         | OpenFOAM: The Open Source CFD Toolbox
   \\    /   O peration     | Website:  https://openfoam.org
    \\  /    A nd           | Version:  9
     \\/     M anipulation  |
\*---------------------------------------------------------------------------*/
FoamFile
{
    format      ascii;
    class       dictionary;
    location    "system";
    object      fvSchemes;
}
// * * * * * * * * * * * * * * * * * * * * * * * * * * * * * * * * * * * * * //

ddtSchemes
{
    default         CrankNicolson 0.9;
    //default         Euler;
}

gradSchemes
{
    default         Gauss linear;
    limited         cellLimited Gauss linear 1;
}

divSchemes
{
    default         none;
    //div(rhoPhi,U)   Gauss linearUpwind limited;
    div(rhoPhi,U)   Gauss LUST limited;
    //div(phi,alpha)  Gauss MPLIC;
    div(phi,alpha)  Gauss interfaceCompression vanLeer 1;
    //div(rhoPhiCp,T) Gauss linearUpwind limited;
    div(rhoPhiCp,T) Gauss LUST grad(T);
    //div(rhoPhiCp,T) Gauss linear;
    div(((rho*nuEff)*dev2(T(grad(U))))) Gauss linear;
}

laplacianSchemes
{
    default         Gauss linear uncorrected;
}

interpolationSchemes
{
    default         linear;
}

snGradSchemes
{
    default         uncorrected;
}


// ************************************************************************* //
