/*--------------------------------*- C++ -*----------------------------------*\
  =========                 |
  \\      /  F ield         | OpenFOAM: The Open Source CFD Toolbox
   \\    /   O peration     | Website:  https://openfoam.org
    \\  /    A nd           | Version:  10
     \\/     M anipulation  |
\*---------------------------------------------------------------------------*/
FoamFile
{
    format      ascii;
    class       vectorField;
    location    "0/lagrangian/cloud";
    object      angularMomentum;
}
// * * * * * * * * * * * * * * * * * * * * * * * * * * * * * * * * * * * * * //


3300
(
(-5.85353e-12 3.63277e-12 -1.73481e-11)
(-4.0001e-12 1.5142e-12 7.83494e-12)
(-1.68972e-11 3.47604e-12 -1.44935e-11)
(-1.23261e-09 -6.07339e-10 1.66279e-11)
(-2.4603e-11 -2.05082e-11 -1.31366e-11)
(1.25093e-12 -3.32682e-12 4.25276e-12)
(-1.00975e-13 -9.73065e-13 -3.87771e-12)
(-2.58173e-12 1.19647e-12 1.69266e-12)
(4.34328e-12 -2.72775e-13 2.43192e-12)
(-2.91279e-12 -6.55484e-13 -7.00775e-12)
(-7.67698e-12 7.5064e-12 -2.9806e-12)
(3.30981e-13 7.3729e-12 6.66955e-12)
(1.23099e-11 -3.65928e-12 -1.02386e-12)
(1.35403e-12 -1.50518e-12 -2.84672e-12)
(1.14755e-10 6.70514e-11 -5.38626e-13)
(-3.07759e-11 7.33611e-11 1.376e-11)
(2.13273e-11 1.18718e-11 4.93249e-12)
(-6.41901e-11 2.29238e-12 -1.10297e-11)
(2.54821e-11 -1.75579e-11 2.19379e-11)
(1.80133e-11 -6.16245e-13 -1.24721e-11)
(-4.08631e-12 4.54754e-11 4.57361e-11)
(-9.02049e-12 -1.02287e-11 -4.11528e-11)
(1.40815e-11 3.15754e-12 -4.17603e-12)
(1.99498e-11 4.56055e-11 3.07895e-12)
(7.62736e-12 -3.1294e-11 4.30993e-12)
(-1.15873e-11 4.60266e-12 -2.29453e-12)
(2.02552e-11 -4.86802e-12 1.40656e-11)
(-1.1158e-10 3.63049e-11 -1.63368e-11)
(1.06802e-10 6.52789e-11 3.78888e-11)
(-3.19471e-10 8.18372e-10 -3.83006e-11)
(7.6867e-10 2.77254e-11 6.02521e-11)
(-1.27011e-09 5.19286e-10 -4.16628e-11)
(1.46428e-09 -1.6056e-09 -4.30769e-11)
(7.37712e-10 1.0477e-09 2.94164e-11)
(7.85786e-12 -1.43385e-13 -6.65848e-12)
(-8.87276e-13 1.39471e-11 8.73611e-12)
(-3.08249e-11 -1.24681e-11 3.05092e-11)
(-8.92226e-11 -1.5969e-11 -2.85209e-11)
(4.05716e-12 5.08638e-11 4.6286e-11)
(1.2369e-11 -4.57858e-11 1.51535e-11)
(1.53279e-11 5.8101e-12 -2.23628e-11)
(9.02235e-11 -3.8193e-12 4.44952e-11)
(-7.97755e-12 2.04034e-11 -3.73421e-11)
(-2.59533e-11 2.03371e-11 -1.00077e-11)
(5.71575e-12 -6.53051e-11 1.90412e-11)
(1.39303e-12 -4.40204e-11 6.31915e-12)
(2.3265e-11 9.52587e-12 -1.10958e-11)
(-2.36138e-11 1.53648e-11 -1.97072e-11)
(3.7017e-11 -2.18486e-12 2.02516e-11)
(-5.84336e-11 -2.59493e-11 2.03784e-11)
(7.50442e-12 8.39517e-13 -3.89435e-11)
(1.71417e-11 -3.50704e-12 1.1579e-11)
(-5.47187e-12 -1.02829e-11 1.6776e-12)
(1.05645e-11 1.18542e-11 -5.71081e-12)
(-4.71707e-11 -1.96306e-11 9.93408e-12)
(-2.68603e-11 -2.21514e-12 -9.34845e-12)
(9.7768e-12 4.3205e-10 6.40693e-12)
(9.92553e-12 5.30297e-12 -2.55784e-12)
(-8.18924e-13 -4.23618e-12 -4.58767e-13)
(-2.59198e-12 3.96615e-12 -6.15194e-14)
(-1.87595e-12 -4.70537e-12 2.63818e-13)
(2.584e-12 -1.91352e-12 1.08777e-12)
(-6.31878e-12 -4.36905e-12 3.25787e-12)
(-7.84924e-12 -3.41485e-12 -1.13169e-11)
(1.30575e-11 3.78361e-12 4.00243e-13)
(-2.59458e-13 -5.20055e-12 1.39266e-11)
(-1.31528e-12 1.3768e-11 -4.20019e-12)
(-3.96972e-12 2.69564e-12 -1.47851e-11)
(1.05868e-11 -6.55921e-12 1.97432e-11)
(-5.65998e-11 -1.56246e-10 -1.74571e-11)
(9.11732e-11 2.6556e-11 2.1634e-11)
(-3.78456e-11 1.01139e-10 -1.617e-11)
(3.56074e-10 -3.70586e-10 2.60714e-12)
(6.64693e-10 -5.84507e-11 -9.43367e-13)
(-5.23819e-11 4.58558e-13 -2.43471e-12)
(1.31663e-11 1.03074e-11 -5.0137e-12)
(1.27506e-10 -2.74603e-11 -1.24309e-11)
(-1.88671e-10 -8.86783e-11 6.2869e-11)
(-1.58347e-12 4.40918e-12 1.27914e-12)
(-1.23082e-14 -2.38971e-12 -1.2383e-11)
(3.22768e-12 -1.49981e-12 -2.12688e-12)
(2.42948e-11 -7.93607e-11 -4.64169e-12)
(1.89288e-11 -4.45204e-11 -5.76977e-12)
(-8.36011e-12 -7.45571e-12 -1.51383e-11)
(5.89e-12 4.22935e-11 1.71547e-11)
(-4.85793e-12 -5.4571e-11 -3.0694e-11)
(8.42768e-12 -8.11221e-12 1.18647e-11)
(2.76819e-11 -4.93237e-11 3.36422e-12)
(2.89166e-11 -5.54297e-12 7.80634e-12)
(-2.7436e-10 1.14432e-10 5.23837e-11)
(3.20743e-10 3.21529e-10 5.31746e-11)
(6.35011e-11 -1.94342e-10 -4.40756e-12)
(1.5241e-11 -8.47651e-11 1.01016e-10)
(6.64059e-10 -7.19816e-10 -2.40835e-11)
(9.59459e-10 1.96793e-10 -1.14088e-10)
(2.12609e-10 7.32325e-10 1.13717e-10)
(-2.96131e-09 1.30586e-09 1.07522e-10)
(-1.01117e-09 7.95664e-10 -3.79212e-10)
(1.07684e-10 2.06263e-10 -3.788e-11)
(6.95368e-11 -8.48301e-11 9.51428e-10)
(1.51143e-10 9.10275e-11 -2.06725e-09)
(-9.13497e-12 9.32023e-13 -2.61107e-09)
(-1.98139e-09 7.44006e-10 1.18045e-09)
(-4.80197e-10 2.34581e-10 2.49943e-09)
(2.33288e-10 -2.13239e-10 -2.4719e-08)
(-1.06588e-12 -1.55958e-12 1.41541e-11)
(3.13332e-11 -3.06996e-11 -1.81384e-11)
(-3.35029e-12 -2.97607e-12 1.48364e-11)
(1.7506e-12 2.98079e-11 -5.76618e-11)
(2.81177e-11 -4.86389e-11 3.95049e-11)
(1.59407e-10 -2.72247e-11 7.5831e-11)
(-1.37309e-10 -1.07824e-10 -3.54721e-11)
(3.31174e-11 3.93041e-11 2.97785e-11)
(-2.97562e-11 1.35299e-11 -7.41469e-13)
(7.00831e-12 6.01624e-11 -2.40037e-11)
(-3.48216e-11 3.59759e-11 -1.95557e-11)
(2.45794e-11 -1.58438e-11 1.02343e-11)
(-2.04806e-11 -2.8235e-11 -1.93439e-11)
(2.49165e-11 2.77801e-12 1.4202e-11)
(2.3109e-11 2.52742e-11 1.67749e-11)
(-4.38036e-12 4.43083e-12 -4.56757e-11)
(-2.83085e-12 -3.36372e-12 3.29044e-11)
(2.84478e-11 1.20251e-11 -9.63174e-12)
(1.51757e-11 -2.65327e-11 3.8957e-11)
(-1.97995e-10 1.06058e-10 -3.14272e-11)
(1.96819e-10 -1.42874e-10 2.92948e-12)
(-1.5665e-11 1.67803e-11 -1.3773e-12)
(1.99682e-11 -2.36084e-11 2.00363e-11)
(-3.35567e-09 1.01474e-09 -3.6926e-11)
(4.65485e-09 5.44728e-09 -3.23927e-11)
(-7.67277e-12 6.33239e-12 -2.18197e-12)
(6.40753e-12 3.00217e-12 3.06251e-13)
(2.81803e-11 1.9049e-11 3.59488e-11)
(-3.1451e-12 -7.45754e-12 -7.68045e-12)
(1.0844e-11 2.14036e-12 -4.4092e-12)
(-1.81131e-11 1.99078e-11 7.69275e-12)
(-4.9056e-10 -6.375e-10 -1.98775e-12)
(-5.0934e-12 -2.19218e-11 -2.50402e-12)
(-1.25105e-11 -1.82134e-12 2.10462e-11)
(-2.48614e-11 -1.65886e-11 1.00558e-12)
(-5.0754e-11 4.23402e-11 2.27331e-12)
(1.28223e-10 3.27733e-11 -4.11433e-12)
(-1.0296e-10 1.23597e-10 1.99075e-11)
(-1.4953e-10 -4.47544e-11 5.25496e-11)
(7.03676e-11 7.37473e-12 -1.90235e-11)
(-1.10099e-10 -1.23306e-10 3.09705e-11)
(-5.05947e-11 6.84335e-10 -2.0568e-11)
(7.92963e-11 5.2081e-11 1.136e-11)
(-1.40098e-11 -2.33121e-12 2.42261e-13)
(1.11913e-11 4.84274e-11 -4.84513e-12)
(-2.29164e-12 7.83774e-14 8.74647e-12)
(-3.38043e-13 2.66157e-12 -4.14194e-12)
(2.50482e-12 -4.55519e-12 -1.87908e-12)
(-1.27686e-11 -3.01261e-12 -1.42265e-13)
(-3.65113e-12 -3.39847e-13 -1.27194e-12)
(9.27332e-12 -4.57296e-14 -8.1966e-13)
(-2.85429e-11 5.17844e-11 -6.74519e-12)
(1.25827e-11 1.98899e-11 1.27189e-11)
(7.50759e-12 -1.13221e-11 -1.09873e-11)
(8.8437e-12 -9.47338e-12 7.41085e-12)
(9.57956e-14 -1.2227e-11 -2.5306e-12)
(-1.28302e-12 6.59473e-12 -1.52921e-11)
(-9.61957e-10 2.00849e-09 -2.17524e-11)
(-5.14492e-11 4.80014e-11 1.21876e-11)
(1.06079e-10 -2.31703e-11 -1.27445e-12)
(1.51022e-10 -6.3447e-10 -4.53695e-11)
(-2.41477e-09 -1.48993e-09 9.518e-11)
(1.97983e-09 1.32143e-10 2.97351e-12)
(1.15395e-09 1.06271e-09 -5.09235e-11)
(-1.81186e-10 -7.75833e-11 -8.55402e-11)
(-1.58571e-09 4.84924e-10 -5.1887e-11)
(1.10394e-09 3.44772e-10 4.66727e-11)
(8.93278e-11 -2.30392e-10 -1.50979e-11)
(1.40132e-09 -4.82825e-10 1.21179e-11)
(1.26138e-09 -1.69832e-09 4.71898e-10)
(3.06886e-10 -5.16947e-10 -1.3164e-09)
(3.77692e-12 -7.66652e-12 -5.10084e-12)
(-5.46374e-13 9.13344e-12 1.06164e-12)
(3.82695e-11 2.30988e-11 -2.76363e-11)
(-4.63514e-11 5.43159e-11 -1.82543e-11)
(-1.92609e-11 -1.75251e-11 -1.16001e-11)
(4.51049e-11 3.30541e-11 -1.78465e-11)
(-3.55177e-11 -4.31299e-11 -9.8464e-12)
(-2.28801e-11 -2.04306e-11 -1.60654e-11)
(2.63323e-11 -8.71815e-12 6.75676e-12)
(5.39802e-11 -3.14245e-11 6.8008e-12)
(-3.69925e-11 7.55386e-12 -5.83369e-12)
(1.72683e-11 -6.62142e-12 -2.11022e-12)
(-2.20384e-11 -7.70637e-13 -5.58318e-13)
(-1.74555e-11 -1.89412e-11 1.59509e-11)
(-2.82845e-11 -4.98059e-11 -8.50057e-12)
(-1.17828e-11 5.32127e-12 9.71986e-12)
(1.85879e-11 -2.24647e-11 7.52365e-13)
(-6.48164e-12 9.84919e-12 4.56967e-12)
(-7.12794e-12 4.18124e-11 -8.48315e-12)
(-1.06532e-10 1.11966e-10 1.35292e-11)
(-4.38154e-11 2.39301e-11 -4.30654e-12)
(-8.55014e-10 -6.03337e-10 -7.64538e-12)
(5.70459e-10 1.07674e-09 -3.84574e-11)
(-2.64233e-11 1.17244e-12 -3.45786e-11)
(-3.11601e-12 1.15452e-11 -4.42245e-12)
(-9.88569e-12 7.23785e-12 -2.99341e-12)
(-4.34189e-11 2.95839e-12 -3.9212e-11)
(4.58534e-12 1.08178e-12 5.76751e-11)
(-2.30351e-12 -1.18206e-11 -5.98304e-11)
(-4.21566e-12 1.70658e-11 3.81636e-11)
(-6.15552e-11 -7.33906e-11 1.49164e-11)
(-2.3972e-11 5.43168e-11 -2.38155e-11)
(-5.80996e-12 2.06378e-11 -1.75522e-11)
(2.36125e-11 6.14575e-12 2.66789e-12)
(-5.16259e-11 -1.31815e-11 -9.63289e-12)
(9.5169e-11 -9.69935e-11 5.53769e-12)
(-1.05346e-10 8.90598e-11 8.53412e-12)
(1.53515e-10 -4.79776e-11 -1.36484e-11)
(1.74927e-11 -5.17126e-12 -3.79742e-11)
(7.39298e-10 -1.20585e-09 4.87069e-11)
(2.25338e-11 3.20132e-11 -1.649e-11)
(2.59619e-11 2.01178e-11 -7.86174e-12)
(-2.52841e-11 2.3386e-11 -1.56272e-12)
(2.94853e-11 -5.6588e-11 2.77353e-12)
(-1.07027e-11 -9.31071e-13 8.44473e-14)
(9.48191e-12 5.25418e-12 -5.65605e-12)
(1.38563e-11 -1.50852e-11 6.9012e-12)
(-4.61522e-11 2.03808e-11 -1.86823e-11)
(-1.15832e-12 4.59777e-12 5.55997e-13)
(6.66933e-12 -2.61757e-12 4.00312e-12)
(6.22458e-10 7.48856e-10 2.19483e-11)
(5.42011e-12 -8.759e-12 -1.76264e-11)
(-2.36096e-13 -1.08927e-12 8.21553e-12)
(-1.0346e-11 -7.99017e-13 -7.86092e-13)
(1.44749e-12 2.75583e-11 -7.5085e-12)
(2.80221e-12 -1.47543e-11 2.01457e-11)
(-2.39122e-11 -3.01279e-12 -2.81287e-11)
(8.3691e-12 -7.0244e-13 2.35435e-11)
(-1.99916e-11 1.4001e-11 -2.80083e-11)
(1.7388e-09 7.70329e-10 5.21821e-11)
(-1.22505e-09 6.92058e-10 1.26732e-11)
(7.63685e-10 -1.25868e-10 -6.51262e-11)
(-2.4843e-10 4.46178e-10 3.19131e-11)
(6.38363e-11 6.81227e-11 -1.83412e-11)
(4.30883e-11 -5.45401e-10 -3.16508e-12)
(-2.26212e-10 4.55687e-10 -1.70579e-11)
(8.14194e-11 -1.33627e-10 1.41033e-09)
(-3.81229e-10 3.08868e-10 1.51163e-09)
(1.90421e-10 -5.34684e-10 -1.52987e-09)
(-2.98515e-11 3.45876e-11 7.63182e-10)
(1.59084e-10 -3.02043e-10 -7.06194e-10)
(1.91149e-13 3.42651e-12 2.81056e-12)
(-6.88922e-12 1.03499e-11 3.35728e-12)
(-1.8058e-11 -2.42867e-11 -1.24656e-11)
(1.66967e-11 1.45451e-11 4.83644e-11)
(3.12575e-11 -5.63846e-11 3.97612e-11)
(-1.54046e-11 -2.80145e-11 6.91037e-12)
(1.77415e-11 -1.88689e-12 1.96557e-11)
(-1.32415e-11 2.14178e-11 -3.4315e-11)
(7.80917e-11 -4.38749e-11 1.79342e-11)
(-2.87121e-11 -1.13258e-10 -2.11231e-11)
(2.98274e-11 1.14016e-11 2.6567e-11)
(5.21132e-09 -2.62844e-10 4.06822e-11)
(-2.89393e-11 -1.11464e-11 -4.68898e-12)
(1.9839e-11 4.51501e-11 1.19962e-11)
(-6.64825e-12 -3.65398e-11 4.47934e-12)
(4.73996e-12 3.81687e-11 5.41141e-12)
(4.02224e-12 -9.36255e-12 -4.0271e-12)
(-1.95773e-11 6.61458e-12 6.06907e-12)
(1.77344e-11 4.66932e-12 -3.54285e-12)
(9.39988e-12 2.27587e-12 1.45662e-11)
(6.05936e-10 4.18898e-11 -9.7103e-13)
(-3.98811e-12 -1.75237e-11 -3.54192e-12)
(3.05912e-09 -2.50791e-09 4.65065e-11)
(-7.76937e-12 1.07423e-12 3.14175e-11)
(-1.10143e-11 -1.68593e-11 -2.38058e-11)
(2.64367e-11 5.26032e-12 2.88408e-11)
(-1.30193e-11 1.36933e-11 -4.54386e-11)
(-2.87193e-11 -6.97308e-11 2.29094e-11)
(1.6035e-11 2.74824e-11 -4.9435e-11)
(4.67642e-11 6.43491e-11 1.1198e-11)
(-7.17412e-12 1.46988e-12 4.32213e-11)
(7.09291e-11 -3.85984e-11 1.04186e-12)
(-2.83316e-11 -6.38362e-11 8.13741e-11)
(4.59627e-11 2.46846e-11 -9.90395e-12)
(6.60891e-13 -6.64362e-12 -2.16882e-11)
(-7.17226e-11 9.24176e-11 1.31352e-11)
(4.84829e-11 -7.36258e-11 -4.38821e-12)
(1.55675e-11 4.70688e-11 -6.99358e-13)
(9.86468e-10 1.26905e-09 -3.51589e-11)
(-1.5892e-09 2.35428e-09 -1.758e-11)
(-1.76431e-10 1.10098e-10 -5.74757e-12)
(9.08214e-12 -1.64256e-11 3.22261e-12)
(7.33264e-11 -3.30716e-12 -2.5573e-12)
(5.52021e-10 9.96945e-11 -1.98902e-11)
(-1.51452e-11 -1.63219e-11 -1.20887e-11)
(1.42034e-11 1.73108e-11 -1.0872e-11)
(-9.64086e-12 -1.39151e-11 8.97267e-12)
(-1.24685e-11 -9.73382e-12 -1.55677e-12)
(8.45293e-12 -2.85593e-13 8.46285e-12)
(-3.88583e-12 5.60102e-13 5.74028e-12)
(1.15571e-11 6.25617e-12 -1.76051e-12)
(-1.39573e-11 6.03525e-12 -1.13851e-11)
(-1.35276e-12 1.27763e-11 -1.55999e-14)
(5.86206e-12 -1.15558e-11 9.94264e-12)
(2.13663e-11 -1.80758e-11 1.84562e-11)
(-2.77377e-11 7.48072e-12 -1.45079e-11)
(-5.16736e-11 -3.61433e-11 -2.36424e-11)
(2.11176e-10 -3.47464e-11 -9.55832e-12)
(-2.43909e-09 -1.61326e-09 -1.04414e-11)
(2.96353e-10 -5.91348e-10 1.15575e-11)
(-5.4e-10 -8.58518e-10 5.06822e-11)
(9.14012e-10 6.06275e-10 2.72554e-12)
(4.75481e-10 -1.92694e-10 -3.02892e-11)
(1.0382e-10 1.00303e-09 6.41036e-11)
(1.29218e-09 -9.92978e-10 -4.50072e-11)
(-7.80389e-10 -2.00522e-10 1.33534e-09)
(3.66522e-10 6.90365e-10 -1.40181e-09)
(-2.42934e-10 -1.33866e-10 -3.11281e-11)
(-4.10793e-10 2.97963e-10 3.9344e-11)
(2.70487e-10 2.09345e-10 -1.7744e-09)
(5.42508e-11 -2.21101e-11 1.11323e-09)
(8.13416e-12 -6.62076e-12 -1.29161e-12)
(-5.98051e-11 -1.82366e-11 -1.2296e-12)
(6.46366e-12 -3.28919e-12 -6.64697e-12)
(8.11943e-12 1.77647e-12 -6.97538e-12)
(3.98993e-11 2.74919e-11 -4.07993e-11)
(-3.59353e-11 -3.66891e-11 1.23365e-11)
(-1.44527e-11 6.41166e-12 6.59907e-12)
(-1.93114e-12 9.47746e-12 5.0546e-13)
(-1.35065e-11 -1.24517e-11 -3.6615e-12)
(-8.19844e-11 -1.75281e-10 -1.37605e-11)
(-3.61656e-09 2.03487e-09 -4.35819e-12)
(-4.15843e-11 -2.6136e-11 3.56009e-11)
(8.45422e-11 -1.2155e-10 -4.97714e-12)
(3.04039e-12 2.09357e-12 -2.3015e-11)
(2.87903e-11 2.99971e-11 2.08083e-11)
(-4.00353e-11 5.60703e-12 -9.22635e-12)
(-8.24267e-12 5.90637e-11 -1.48475e-11)
(-2.00058e-12 -1.66414e-11 -2.72165e-11)
(-2.06791e-11 -1.63083e-11 2.74205e-12)
(1.23809e-11 1.84198e-11 1.67611e-12)
(3.0346e-12 -6.82527e-12 1.75101e-12)
(-1.21058e-11 -3.51908e-12 -1.11106e-11)
(-1.36723e-11 -4.64406e-12 3.45172e-12)
(-3.39661e-09 4.11321e-09 -9.41316e-11)
(-1.46286e-11 4.56156e-13 -1.26706e-11)
(1.72941e-13 4.9785e-12 1.49401e-11)
(3.28424e-11 3.77727e-11 -8.07376e-12)
(2.46371e-11 5.03242e-12 1.54578e-11)
(-1.4732e-11 -2.32579e-11 -2.25345e-11)
(8.78996e-12 -3.28753e-11 4.46229e-12)
(2.58982e-11 -6.5369e-11 -3.33624e-11)
(7.10959e-11 1.58881e-10 3.60123e-11)
(-1.07677e-10 -1.0008e-10 -2.63571e-11)
(1.00956e-11 -5.45521e-11 1.69071e-11)
(-1.8009e-11 1.21063e-10 -2.36037e-12)
(-1.19772e-11 2.89055e-12 2.10465e-12)
(-3.41497e-12 3.95489e-11 1.16205e-12)
(3.10825e-12 -4.76732e-13 -5.06917e-12)
(1.91223e-12 -4.3727e-12 -1.00906e-11)
(4.88024e-11 -2.90974e-11 -1.30813e-11)
(2.05436e-12 -9.39532e-11 1.12707e-11)
(-1.07365e-11 1.65817e-11 -5.47527e-12)
(9.72119e-12 -2.46045e-11 -2.22189e-12)
(-8.15628e-12 5.59162e-12 1.29074e-11)
(6.33929e-12 1.45544e-11 1.82456e-11)
(-1.08577e-11 -1.08923e-11 1.55379e-11)
(1.93711e-11 1.91632e-11 -3.50529e-12)
(1.18893e-11 1.999e-11 2.54456e-12)
(-1.31484e-12 8.46835e-12 9.9376e-12)
(-2.55817e-13 1.10938e-11 2.23396e-13)
(2.81025e-12 1.43735e-12 -3.1847e-12)
(-2.95116e-12 3.09469e-11 -2.14594e-11)
(1.42145e-11 -1.63222e-11 -1.37674e-11)
(-2.44536e-11 1.20081e-11 3.42914e-11)
(1.53052e-11 3.2161e-11 2.02004e-12)
(5.38544e-11 7.38679e-12 1.70168e-12)
(-3.12814e-12 6.30965e-11 -4.83022e-11)
(-3.09659e-11 -4.27627e-11 4.02066e-11)
(8.23371e-11 1.85406e-11 -2.13155e-11)
(1.88261e-10 6.70537e-10 -2.18715e-11)
(9.03744e-11 -4.66253e-11 5.57687e-11)
(-5.84088e-11 1.89994e-11 -2.12809e-11)
(-3.58495e-11 9.72632e-11 1.58836e-11)
(-4.42885e-10 -6.42675e-10 -2.47839e-11)
(1.12639e-09 4.65825e-10 6.66164e-11)
(-1.05971e-09 3.81978e-11 8.76863e-10)
(1.04475e-09 1.17454e-09 -8.78399e-10)
(-3.53295e-10 -2.16379e-11 2.73036e-10)
(1.85877e-10 -4.21863e-11 -5.41639e-10)
(5.04882e-10 1.61474e-10 3.51541e-11)
(8.87586e-11 1.09054e-11 -2.30583e-10)
(2.86516e-12 -5.47377e-12 -1.9627e-12)
(6.00119e-12 9.64711e-13 1.68e-12)
(-8.67698e-12 6.16832e-12 1.68674e-12)
(1.01756e-11 1.69555e-12 -2.20247e-12)
(-2.26272e-12 1.94279e-11 3.80179e-12)
(1.64397e-10 -1.98368e-10 4.69662e-11)
(3.72778e-11 5.60964e-12 7.51432e-12)
(-1.63154e-11 -1.42686e-11 2.95089e-12)
(9.46516e-12 -3.15377e-15 -1.70763e-12)
(2.23398e-11 -2.92793e-12 4.72681e-12)
(-7.27574e-11 1.6153e-11 -7.36377e-12)
(-1.37247e-11 2.77206e-11 4.4961e-12)
(1.82123e-11 3.16892e-11 3.25454e-11)
(1.04507e-11 -7.43064e-11 -3.38819e-11)
(-4.83417e-11 3.34876e-11 -1.34145e-12)
(2.34602e-11 2.16064e-11 2.03614e-11)
(-1.01624e-11 -4.41019e-11 -2.39339e-13)
(9.23911e-12 2.53153e-11 2.59697e-11)
(-2.57604e-11 2.49563e-11 -1.6578e-11)
(6.43973e-13 9.25505e-12 -1.68709e-11)
(-1.2717e-11 -6.80458e-12 1.28497e-11)
(2.4954e-11 8.33669e-12 -1.50206e-11)
(-1.3529e-11 -1.32718e-11 1.67334e-12)
(9.60886e-12 -1.25057e-13 8.30562e-12)
(1.37949e-11 7.11504e-12 -8.852e-12)
(-5.69481e-11 3.20348e-12 1.40178e-11)
(-5.50029e-12 -2.30365e-11 -8.53325e-12)
(-7.95714e-13 6.35902e-11 4.95529e-12)
(6.57031e-11 2.80044e-11 -2.29534e-11)
(-3.76829e-11 -7.60861e-12 -1.8313e-11)
(1.24293e-11 4.06141e-11 3.1663e-11)
(1.28807e-09 2.31691e-09 -1.49626e-10)
(1.60337e-10 -4.64725e-11 7.33776e-12)
(-1.48573e-10 6.11309e-11 1.27994e-11)
(1.546e-09 -4.13112e-10 5.5583e-13)
(4.26488e-11 -3.76609e-11 -4.30636e-11)
(3.99333e-11 2.90296e-11 -1.44188e-11)
(-2.5651e-11 -1.14593e-11 2.46497e-11)
(-1.83266e-11 -1.89873e-11 1.1088e-11)
(-1.56381e-12 3.96463e-12 -2.31091e-12)
(-1.8723e-09 3.58476e-10 1.40748e-11)
(4.34405e-10 -7.96414e-11 8.61936e-12)
(-1.78099e-11 2.78163e-11 8.91556e-12)
(1.56777e-11 -7.3768e-12 6.94504e-13)
(-1.19288e-11 -9.16671e-12 -1.12632e-11)
(1.52991e-11 2.89281e-12 -9.31081e-12)
(1.95377e-10 7.43078e-11 1.8658e-11)
(-3.59377e-11 -2.30592e-12 1.37239e-11)
(-4.20579e-12 -2.39293e-11 -7.05083e-13)
(-2.39452e-12 -1.22023e-11 -2.82059e-12)
(-3.82126e-12 -1.16125e-11 2.11321e-12)
(1.27852e-11 7.98049e-11 2.0645e-12)
(-3.34596e-11 -2.49431e-12 -1.94975e-11)
(1.86627e-11 2.59389e-11 2.64142e-11)
(-3.49741e-11 -2.59821e-11 6.10861e-12)
(-1.52408e-10 8.18167e-11 2.78089e-11)
(-8.32285e-12 4.96167e-11 -2.58886e-12)
(2.43673e-11 -6.5337e-11 4.72527e-11)
(-4.2637e-12 -6.66315e-12 -5.18549e-11)
(-1.68008e-10 -7.31729e-10 5.38106e-11)
(-1.50614e-12 -2.04214e-10 -5.2331e-11)
(-3.8466e-10 -7.98426e-11 2.92627e-11)
(3.48215e-11 1.82078e-10 -2.46766e-11)
(-2.41378e-10 -4.5818e-11 -2.92264e-11)
(-8.92062e-11 -1.24005e-10 6.45634e-12)
(1.98612e-10 1.71367e-10 -2.0526e-11)
(-8.93606e-11 1.63542e-10 -1.55188e-10)
(1.76073e-10 3.8302e-10 2.83668e-10)
(-1.20117e-10 -1.992e-11 -1.27881e-10)
(2.04303e-10 -1.31286e-11 1.00605e-10)
(-4.44775e-11 -1.12144e-11 4.26233e-10)
(1.05232e-12 1.0742e-12 -2.14022e-12)
(6.35348e-13 1.24456e-11 -1.12524e-12)
(-9.52168e-12 -2.37689e-12 -1.08729e-12)
(-8.47281e-13 -1.5337e-11 5.76364e-13)
(-1.76519e-10 6.71682e-10 -2.17414e-11)
(-1.74841e-11 -9.04085e-12 -9.91095e-12)
(1.67113e-11 -3.26037e-11 1.2872e-11)
(-2.97995e-12 5.73403e-13 1.11221e-12)
(-3.46761e-12 1.55045e-12 3.55052e-12)
(9.46626e-13 4.06563e-12 1.78852e-12)
(-1.01162e-11 1.1188e-11 -7.33114e-12)
(6.40293e-12 -1.84832e-11 1.31286e-12)
(8.60937e-12 -1.98507e-11 1.00199e-11)
(-1.03578e-11 6.25397e-12 -3.08809e-11)
(-3.45546e-11 -5.54911e-11 2.31738e-11)
(3.01467e-11 4.38593e-11 5.10873e-12)
(-2.80873e-11 -5.49176e-11 1.24753e-12)
(4.91259e-12 -3.2469e-11 -2.27938e-11)
(2.64973e-11 -4.26375e-11 -5.57049e-12)
(1.65331e-11 -1.48424e-11 9.81163e-12)
(-2.05215e-11 -2.64444e-11 2.1628e-12)
(-9.38537e-12 -1.81046e-11 -6.48503e-12)
(1.36733e-11 6.23097e-13 -8.38402e-13)
(4.8039e-12 -1.34813e-11 1.38201e-11)
(2.93035e-12 1.64168e-11 -6.81415e-12)
(2.22247e-11 1.19011e-11 -7.76298e-12)
(-5.12742e-11 -8.06818e-11 4.0722e-12)
(8.63339e-11 -4.90821e-11 -1.09556e-11)
(-7.50706e-10 -2.43712e-10 -7.78945e-11)
(7.4121e-10 1.28965e-09 6.4848e-11)
(-1.38168e-09 -1.64782e-09 -1.69496e-11)
(-3.93334e-10 -2.47725e-09 3.10936e-11)
(1.65171e-10 1.26482e-10 -5.1254e-11)
(-1.78131e-11 8.12019e-12 -1.88514e-11)
(1.82443e-11 1.69342e-10 -2.36316e-12)
(-2.97756e-11 -2.95409e-11 8.66989e-11)
(-1.87675e-11 -1.51003e-11 4.77012e-11)
(2.67132e-11 1.38577e-11 -2.47063e-11)
(-1.13057e-11 -6.42039e-12 1.41502e-11)
(2.63911e-13 6.65426e-12 -1.18957e-11)
(2.21976e-12 9.24623e-12 8.95142e-12)
(9.9095e-12 -1.14083e-12 -1.36808e-12)
(-4.24627e-12 -1.81257e-11 -7.93084e-12)
(-1.09601e-10 -8.43361e-09 7.45941e-11)
(-8.83956e-12 1.33826e-11 -1.3224e-11)
(-4.57953e-13 -2.78106e-12 3.89893e-12)
(-4.29949e-12 3.5252e-11 -1.68772e-11)
(5.49532e-12 -1.2866e-11 -2.04923e-11)
(8.55133e-12 1.77081e-11 9.1734e-12)
(-8.8746e-12 2.48081e-12 4.59427e-12)
(8.94034e-12 9.75841e-12 3.87289e-12)
(3.6308e-12 6.37245e-12 -4.3214e-12)
(2.42937e-11 -7.64936e-11 -2.2328e-12)
(2.65772e-11 1.23609e-11 5.40779e-12)
(-3.273e-11 -1.67421e-11 -8.77201e-12)
(9.19551e-12 1.09653e-11 -1.38384e-11)
(1.50704e-11 -3.41728e-11 4.79342e-12)
(2.28197e-11 -3.08756e-11 -1.24929e-11)
(2.7756e-10 2.31212e-10 4.75145e-10)
(5.10164e-09 -3.8726e-10 8.55313e-12)
(8.24323e-10 2.23199e-10 6.96039e-11)
(-3.69981e-10 1.83572e-10 2.10249e-11)
(5.8237e-10 -2.23725e-10 7.17107e-12)
(-4.04061e-11 -8.66669e-12 9.49179e-12)
(-6.50946e-10 -1.55945e-10 -3.72566e-11)
(6.33236e-10 1.10105e-10 4.80335e-11)
(-3.96738e-10 -1.90391e-10 4.49237e-11)
(-1.9521e-10 1.04992e-10 -1.57189e-10)
(3.69598e-10 -1.82653e-10 1.50936e-10)
(7.52943e-11 2.7142e-11 -6.61244e-11)
(-1.41361e-10 2.22669e-11 1.05498e-09)
(-2.05101e-11 5.35824e-12 1.78057e-11)
(9.59418e-11 -1.02037e-11 -3.35884e-11)
(3.52816e-13 -2.52066e-12 6.0469e-12)
(1.16197e-11 7.60828e-12 4.56214e-12)
(-5.16488e-12 -7.81744e-13 1.26268e-12)
(8.84787e-12 -1.76645e-11 -1.59038e-11)
(7.11285e-12 1.17271e-11 7.17192e-12)
(2.0643e-12 -1.22747e-11 2.19498e-11)
(6.28442e-12 -4.42574e-12 -1.69811e-11)
(1.18294e-11 -6.14602e-12 -1.03838e-11)
(8.26321e-12 -3.9643e-12 -2.86132e-11)
(1.13818e-11 7.1933e-11 1.32627e-11)
(-8.85088e-12 1.67677e-11 5.01693e-12)
(-4.76938e-11 -1.85425e-10 6.7595e-11)
(2.21925e-11 5.01514e-11 -7.71429e-11)
(-3.47791e-11 -2.47009e-11 -2.98521e-12)
(3.07254e-11 1.03661e-11 9.88371e-12)
(-3.05978e-11 3.65928e-11 -2.24794e-11)
(1.68085e-11 3.34331e-11 1.53547e-12)
(-4.56291e-11 2.42482e-11 -9.01045e-12)
(-1.70256e-10 1.48589e-09 2.6954e-09)
(-1.81361e-11 -7.49485e-12 5.79345e-13)
(3.91894e-12 3.04385e-11 -3.31988e-12)
(-3.63438e-11 -3.70045e-11 1.36712e-12)
(-2.27113e-11 -1.21299e-12 -6.67229e-12)
(3.71681e-11 2.41845e-12 -1.05118e-11)
(-3.23045e-11 -2.13621e-11 3.59961e-12)
(3.10862e-11 2.74159e-11 4.66921e-12)
(1.11801e-11 -6.73675e-12 -1.90595e-12)
(-9.24677e-11 -2.56453e-10 -1.73118e-11)
(4.25616e-10 8.78286e-11 -3.45884e-11)
(-3.35194e-10 2.34128e-10 3.77797e-11)
(8.25829e-11 1.52399e-10 2.96386e-12)
(3.05954e-11 -1.78859e-10 -2.74651e-11)
(-1.13965e-10 6.54419e-11 4.3722e-11)
(4.24285e-11 1.38546e-11 1.28763e-11)
(-2.99621e-11 -1.59019e-11 -3.52528e-11)
(4.20351e-11 -6.3678e-12 -5.11916e-11)
(3.75982e-12 1.03758e-12 -1.8972e-11)
(-3.30481e-11 -8.47465e-12 8.92185e-12)
(-2.59374e-11 3.84471e-12 -7.32847e-12)
(3.31476e-11 -4.53114e-12 3.04023e-12)
(-3.17701e-11 2.09867e-11 5.05232e-13)
(2.96528e-11 -1.10934e-11 -1.67388e-11)
(-1.26069e-11 -9.23565e-12 2.40259e-11)
(-2.76054e-12 4.05303e-12 8.50965e-12)
(1.11104e-11 -3.44113e-11 1.2576e-11)
(9.47453e-11 1.43483e-10 -6.15781e-11)
(-6.08704e-12 2.04735e-11 9.38076e-12)
(-6.26225e-12 4.4768e-12 3.61775e-13)
(-1.33829e-12 -6.02255e-12 1.81662e-12)
(3.03268e-12 -2.19174e-12 5.94755e-13)
(1.22903e-10 -3.58853e-10 -7.92738e-12)
(-2.45421e-11 9.32008e-11 -5.90523e-12)
(-2.85829e-11 -8.35807e-12 -2.61054e-12)
(6.39063e-12 -9.0778e-12 -1.38572e-11)
(1.77929e-11 3.76855e-11 5.55169e-12)
(-2.07781e-11 2.18923e-11 -2.39694e-11)
(4.45703e-10 -3.48363e-11 2.75421e-11)
(-3.13861e-11 1.48664e-09 1.87993e-11)
(7.12441e-11 6.09371e-11 -6.54166e-11)
(-3.42806e-11 -2.81984e-11 1.75061e-11)
(-5.41983e-12 3.38639e-11 -4.64063e-11)
(-3.83468e-10 6.38254e-10 3.8354e-11)
(6.53806e-12 -3.58387e-10 -8.25987e-11)
(3.10372e-10 1.16034e-10 8.31055e-11)
(-3.20746e-10 -1.17933e-10 -2.13139e-11)
(1.64612e-10 -4.34774e-10 1.69147e-10)
(3.15355e-11 -8.63152e-11 -4.64328e-11)
(3.37178e-11 2.19957e-14 7.54235e-11)
(-4.76163e-11 2.94812e-11 1.61051e-10)
(4.79966e-12 -4.0403e-12 -7.20318e-12)
(6.37421e-11 1.26311e-11 -9.30997e-11)
(9.03307e-12 -4.00159e-12 1.09964e-12)
(2.49351e-14 -1.30879e-12 -1.61026e-12)
(-1.43905e-11 6.24764e-12 1.10134e-11)
(9.97746e-12 -2.19864e-12 -3.98261e-13)
(1.15365e-10 -3.82415e-10 -1.86136e-11)
(-5.40184e-11 2.54825e-11 1.37423e-11)
(6.28778e-11 7.01272e-11 1.86353e-11)
(-1.89728e-11 1.08519e-11 1.62087e-11)
(3.05671e-11 8.66631e-12 -1.72945e-11)
(-9.41944e-12 -1.24543e-11 7.2323e-12)
(-2.5628e-11 -8.29884e-12 -4.01548e-11)
(-1.6085e-11 -7.79846e-11 1.88771e-11)
(2.0526e-11 -2.50049e-11 3.1076e-11)
(-1.00427e-11 -9.71891e-12 -3.19542e-13)
(-1.33763e-09 3.63601e-09 -5.8456e-11)
(2.69119e-11 -1.7511e-11 -3.48994e-12)
(-1.2497e-11 -9.75905e-12 -1.63265e-11)
(2.34754e-11 6.56521e-12 4.59098e-12)
(3.54636e-11 5.83298e-13 -1.29775e-11)
(-2.42467e-11 7.00109e-12 1.39553e-11)
(2.77792e-11 -2.49988e-11 -5.84335e-13)
(8.35329e-12 8.25723e-12 9.96348e-12)
(2.5015e-11 -1.39053e-11 -1.78501e-11)
(4.01835e-11 7.10422e-12 2.1473e-11)
(-3.07743e-11 -3.14912e-11 -2.95887e-12)
(3.64313e-11 1.96974e-11 -2.04302e-12)
(-4.2669e-11 -7.69105e-12 6.51283e-12)
(3.26164e-11 2.01003e-11 -7.08075e-12)
(-2.40111e-13 -1.80829e-10 -3.20424e-11)
(1.68792e-10 -2.48792e-10 2.50061e-11)
(-2.60997e-11 1.32983e-10 -3.25381e-11)
(3.3549e-11 5.25097e-11 2.20801e-11)
(5.17738e-12 -1.75143e-10 -1.96578e-10)
(6.72163e-11 7.18119e-11 -1.09544e-10)
(-1.95839e-11 -1.72542e-11 6.39905e-11)
(-1.47073e-11 1.02766e-11 4.19538e-12)
(1.15234e-11 1.32282e-12 -1.07091e-11)
(-9.17891e-12 -4.75477e-12 8.10978e-12)
(5.94061e-12 3.45004e-12 -5.42079e-12)
(-8.49214e-12 -1.79834e-11 8.19367e-12)
(8.81435e-12 -1.58306e-11 -2.87371e-11)
(-1.63707e-11 2.79162e-11 3.05869e-11)
(9.99793e-12 -6.74972e-12 -1.04801e-11)
(9.55806e-11 1.17725e-10 1.30124e-11)
(-4.13645e-12 -9.98451e-12 -3.76021e-12)
(-1.208e-09 -4.32484e-10 6.91808e-11)
(1.90552e-11 -5.72703e-12 8.98168e-12)
(-8.27026e-12 -3.68198e-12 -6.25898e-12)
(-3.4348e-11 1.83238e-11 -7.36528e-12)
(7.76052e-11 2.13969e-10 1.30536e-12)
(-2.87937e-10 9.55775e-11 -9.90159e-12)
(5.27439e-11 8.69795e-11 2.48816e-12)
(4.93269e-11 -1.44864e-10 -9.75792e-12)
(-5.58454e-11 1.57316e-10 -3.2904e-12)
(-2.84649e-11 -6.08891e-11 -7.52023e-12)
(2.5139e-10 -1.62573e-11 1.41927e-11)
(-4.10872e-10 -4.54083e-10 4.6808e-12)
(1.14392e-10 -1.94328e-10 -1.97868e-12)
(-4.42434e-11 1.40648e-10 -1.36796e-11)
(-8.8168e-11 -1.31608e-11 3.35643e-11)
(5.26585e-11 8.40464e-11 -3.24028e-11)
(3.39854e-10 -5.34656e-10 1.3155e-11)
(-1.15919e-09 -4.48672e-10 -1.78847e-11)
(5.92589e-10 9.06691e-10 -2.0294e-11)
(-3.27291e-10 1.45072e-10 -8.86054e-11)
(1.63646e-10 -5.02197e-10 2.08738e-11)
(1.48817e-11 2.06258e-11 -7.60765e-11)
(4.88966e-12 3.6696e-11 -7.94997e-11)
(1.91947e-10 -2.95291e-10 -9.42264e-12)
(-2.06631e-13 6.91531e-11 3.83196e-11)
(-5.9829e-12 4.93995e-13 5.9905e-12)
(1.28624e-11 6.44232e-12 6.8689e-12)
(-1.82793e-11 -2.23917e-11 -1.13839e-11)
(-1.39099e-11 5.56438e-12 -3.79668e-12)
(4.18657e-12 1.05847e-11 -1.50544e-11)
(-6.66423e-12 -6.37197e-11 3.68608e-12)
(1.06609e-11 -6.46629e-12 -2.16192e-11)
(-1.84219e-09 -2.37854e-09 -4.42087e-11)
(-1.83169e-11 -1.72001e-11 -5.98168e-12)
(2.3257e-11 7.99337e-12 4.55967e-11)
(2.43854e-11 4.60203e-11 -3.78587e-11)
(-2.35428e-11 1.87e-11 -1.02754e-11)
(5.2044e-12 2.16645e-11 8.30147e-12)
(1.1838e-11 -5.01761e-12 -1.61619e-11)
(-3.8148e-11 -3.48889e-11 1.63263e-11)
(2.88432e-11 5.7039e-11 -8.96686e-13)
(-3.72807e-11 -1.61589e-11 3.8082e-12)
(2.4133e-11 -5.29029e-12 1.60374e-11)
(-2.03241e-11 6.28825e-12 -4.67396e-12)
(2.179e-11 1.11839e-11 8.92229e-13)
(-6.78297e-12 -1.86061e-11 -7.73173e-12)
(-4.54228e-11 -8.41314e-12 9.37279e-12)
(5.38431e-11 1.43016e-11 -1.75351e-12)
(-4.43723e-11 1.83101e-11 -6.40318e-12)
(4.3231e-11 -1.66144e-12 -4.008e-12)
(-2.37538e-11 1.15658e-11 -6.45479e-12)
(1.25802e-11 8.12785e-11 3.39925e-11)
(-3.2488e-11 -6.54424e-11 -3.22192e-11)
(6.05607e-12 1.0271e-10 -2.74609e-12)
(8.23141e-12 -9.70223e-11 -1.47805e-11)
(-1.20657e-12 6.03859e-11 -7.88576e-12)
(-1.74442e-11 -2.79916e-11 -7.99848e-12)
(-5.78292e-10 -1.11253e-09 7.06726e-11)
(-9.41299e-11 1.93681e-10 1.96995e-11)
(1.0158e-10 -1.78989e-10 1.42684e-11)
(5.36684e-12 -1.05509e-12 1.22856e-12)
(-3.21582e-13 5.18179e-12 -1.19045e-11)
(-1.38465e-11 -6.20197e-11 7.47918e-12)
(7.95554e-12 1.38762e-11 2.55294e-12)
(-6.87737e-11 -2.54334e-10 -6.63514e-12)
(5.6344e-12 2.59291e-11 1.74045e-11)
(3.01185e-11 9.1178e-12 1.36379e-12)
(-3.22955e-11 -1.58551e-11 -1.73671e-11)
(6.43798e-12 6.17599e-12 6.2515e-12)
(-4.80345e-12 -4.54763e-12 -1.12989e-11)
(6.01469e-12 -5.07266e-12 -1.75001e-11)
(-2.55186e-13 9.11561e-12 -3.71643e-12)
(-1.30631e-11 -7.7249e-12 -3.63806e-12)
(1.88543e-11 1.20392e-11 -1.05743e-12)
(-1.96372e-11 -7.07632e-12 3.60114e-12)
(1.56587e-11 -2.94493e-12 -1.83079e-12)
(-2.88349e-12 -4.96644e-12 8.38918e-12)
(4.91043e-11 7.0408e-11 -1.38586e-11)
(-1.41323e-10 -1.8101e-10 -2.32204e-12)
(1.59898e-10 3.00305e-10 -8.831e-12)
(-1.47698e-09 7.57462e-10 4.15902e-11)
(-2.96026e-11 1.91341e-11 4.56894e-11)
(3.47126e-10 -5.53252e-12 2.81354e-11)
(-1.91443e-10 -2.27428e-12 -8.93479e-13)
(7.88107e-11 2.77103e-11 1.38235e-11)
(5.2289e-10 2.42367e-10 -1.30114e-11)
(7.72725e-10 -1.83401e-09 -9.0175e-11)
(-5.59514e-10 -1.53541e-09 1.45586e-11)
(7.09879e-10 -2.82779e-10 8.68668e-12)
(-4.66858e-10 5.09593e-10 -3.71233e-11)
(1.29819e-10 6.69258e-11 8.31162e-11)
(-3.92691e-11 -1.3507e-11 8.19793e-12)
(-8.84464e-12 8.17233e-11 1.16758e-11)
(-8.38427e-11 9.09894e-11 1.13151e-12)
(3.00012e-11 1.92113e-11 1.85021e-11)
(-6.12672e-12 -1.0031e-12 -2.32155e-11)
(-4.46964e-13 -1.04583e-11 8.82066e-12)
(-5.27985e-12 3.97579e-12 -1.04228e-11)
(1.74792e-12 1.12023e-11 1.03487e-11)
(1.21473e-11 -5.96949e-12 -3.57472e-12)
(-1.54888e-11 1.57263e-12 4.76055e-12)