/*--------------------------------*- C++ -*----------------------------------*\
  =========                 |
  \\      /  F ield         | OpenFOAM: The Open Source CFD Toolbox
   \\    /   O peration     | Website:  https://openfoam.org
    \\  /    A nd           | Version:  10
     \\/     M anipulation  |
\*---------------------------------------------------------------------------*/
FoamFile
{
    format      ascii;
    class       vectorFieldField;
    location    "0/lagrangian/cloud";
    object      collisionRecordsWallPRel;
}
// * * * * * * * * * * * * * * * * * * * * * * * * * * * * * * * * * * * * * //


3300
(
2((-0.00299986 0 -4.33681e-19) (8.67362e-19 0 0.00299999))
2((-0.00299809 0 -4.33681e-19) (-4.33681e-19 0 -0.00299998))
2((-0.00299926 0 4.33681e-19) (4.33681e-19 0 0.00299996))
0()
1((-0.0029992 0 -8.67362e-19))
1((0 0 0.00299994))
2((2.1684e-18 0 0.00299992) (-0.00299989 0 4.33681e-19))
2((-0.002999 0 0) (4.33681e-19 0 -0.00299989))
2((-0.00299868 0 0) (-4.33681e-19 0 0.00299976))
1((0 0 -0.00299982))
1((0 0 -0.00299996))
2((-0.00299991 0 0) (8.67362e-19 0 -0.00299998))
1((-0.0029987 0 4.33681e-19))
2((-0.0029998 0 0) (0 0 -0.00299997))
0()
1((0 0 -0.00299988))
0()
2((-0.00299915 0 -4.33681e-19) (-8.67362e-19 0 0.00299995))
0()
2((-0.00299945 0 0) (0 0 -0.00299993))
1((1.73472e-18 0 0.00299991))
1((0 0 -0.00299992))
2((-0.00299927 0 -4.33681e-19) (0 0 0.00299991))
1((0 0 -0.00299989))
1((-0.00299963 0 0))
1((8.67362e-19 0 -0.00299998))
1((8.67362e-19 0 0.00299993))
2((-0.00299943 0 8.67362e-19) (-4.33681e-19 0 -0.00299991))
0()
1((0 0 -0.00299992))
1((-0.00299983 0 0))
1((-0.00299969 0 -4.33681e-19))
0()
1((-0.00299993 0 -8.67362e-19))
1((-0.00149988 -0.00259787 4.33681e-19))
2((-0.00149789 -0.00259442 6.50521e-18) (1.73472e-18 0 0.00299973))
2((-0.00299866 0 -4.33681e-19) (8.67362e-19 0 0.00299991))
2((-0.00299967 0 -4.33681e-19) (4.33681e-19 0 0.00299987))
1((1.73472e-18 0 -0.00299986))
1((1.73472e-18 0 -0.00299973))
2((-0.00299915 0 4.33681e-19) (4.33681e-19 0 0.00299985))
1((0 0 -0.00299988))
1((0 0 0.00299963))
1((-0.00299814 0 0))
1((0 0 -0.00299966))
1((8.67362e-19 0 -0.00299975))
2((-0.0029982 0 0) (4.33681e-19 0 0.00299986))
1((-4.33681e-19 0 -0.00299987))
2((-0.00299825 0 0) (4.33681e-19 0 0.00299965))
1((-0.00299896 0 0))
1((0 0 -0.00299979))
2((-0.0029989 0 4.33681e-19) (0 0 -0.00299993))
2((-0.00299921 0 -4.33681e-19) (0 0 0.00299981))
1((0 0 -0.00299983))
1((0 0 -0.00299986))
2((-0.00299955 0 0) (0 0 0.00299987))
0()
2((-0.00299906 0 0) (4.33681e-19 0 -0.0029998))
2((4.33681e-19 0 0.00299983) (-0.00299946 0 8.67362e-19))
1((-0.00299892 0 4.33681e-19))
1((-4.33681e-19 0 -0.0029999))
2((-0.00299943 0 0) (-8.67362e-19 0 0.00299995))
2((-0.00299913 0 0) (-4.33681e-19 0 -0.00299993))
1((0 0 0.00299987))
1((-0.00299898 0 -4.33681e-19))
1((8.67362e-19 0 -0.00299989))
1((0 0 0.00299981))
1((0 0 0.0029998))
1((0 0 -0.00299977))
1((0 0 0.0029998))
1((0 0 -0.00299982))
1((0 0 0.00299996))
0()
0()
0()
1((0 0 -0.0029998))
0()
0()
1((-1.73472e-18 0 0.00299985))
1((-1.73472e-18 0 0.00299986))
1((0 0 -0.00299995))
0()
1((0 0 0.00299993))
1((0 0 -0.00299988))
1((0 0 0.00299989))
1((0 0 0.00299999))
1((0 0 -0.00299998))
1((0 0 0.0029999))
0()
0()
0()
1((0 0 0.00299994))
0()
0()
0()
0()
0()
0()
1((-0.00299958 0 0))
0()
0()
0()
0()
0()
0()
2((-0.0014993 -0.00259687 0) (0 0 -0.00299993))
1((6.93889e-18 0 0.00299988))
1((0 0 0.00299965))
1((0 0 -0.00299968))
1((0 0 -0.00299999))
0()
0()
1((0 0 0.00299999))
1((0 0 0.00299979))
0()
1((0 0 0.00299977))
0()
1((0 0 0.00299974))
1((1.73472e-18 0 -0.00299985))
1((0 0 0.0029996))
1((0 0 -0.00299961))
1((0 0 0.0029997))
1((0 0 0.00299971))
0()
0()
0()
1((0 0 0.0029999))
1((1.73472e-18 0 0.00299987))
0()
0()
1((0 0 -0.00299988))
1((1.73472e-18 0 -0.00299983))
1((0 0 0.0029999))
1((-1.73472e-18 0 0.00299985))
1((-1.73472e-18 0 -0.00299991))
1((1.73472e-18 0 -0.00299984))
0()
1((0 0 0.00299982))
1((-1.73472e-18 0 -0.00299969))
1((0 0 0.00299988))
0()
1((0 0 -0.00299986))
1((0 0 0.00299986))
0()
1((0 0 0.00299979))
1((0 0 -0.00299977))
1((0 0 -0.00299991))
1((0 0 0.00299979))
1((0 0 -0.00299985))
0()
1((-3.46945e-18 0 0.00299972))
1((0 0 0.00299984))
1((0 0 -0.00299967))
1((0 0 0.00299982))
1((0 0 0.00299984))
1((0 0 -0.00299987))
1((0 0 0.00299988))
0()
1((3.46945e-18 0 -0.00299986))
1((0 0 0.00299989))
1((0 0 -0.0029999))
1((0 -5.55112e-17 -0.00299991))
0()
1((0 0 0.00299989))
1((0 0 -0.00299985))
1((0 0 0.00299997))
1((0 0 -0.00299991))
0()
0()
0()
1((0 0 -0.00299996))
0()
0()
0()
0()
0()
1((-0.00149942 -0.00259707 0))
2((-0.0014998 -0.00259772 4.33681e-19) (0 0 0.00299991))
1((-3.46945e-18 0 0.00299985))
1((0 0 -0.00299991))
1((-3.46945e-18 0 -0.00299948))
1((0 0 0.00299975))
1((0 0 0.00299978))
1((0 0 0.00299993))
1((0 0 0.00299994))
1((0 0 -0.00299964))
1((0 0 0.00299971))
1((0 0 -0.0029998))
1((-1.73472e-18 0 -0.00299967))
1((0 0 0.0029998))
0()
1((0 0 -0.00299964))
1((0 0 0.00299968))
1((0 0 -0.00299949))
1((0 0 0.00299993))
0()
1((0 0 -0.00299992))
0()
0()
1((0 0 0.00299992))
1((0 0 0.0029999))
1((0 0 0.00299991))
1((0 0 -0.00299994))
1((0 0 0.00299985))
1((-3.46945e-18 0 0.00299996))
1((0 0 -0.00299998))
0()
1((0 0 0.00299977))
1((0 0 0.00299977))
1((0 0 -0.00299978))
1((0 0 -0.00299984))
1((-3.46945e-18 0 0.00299987))
1((0 0 -0.00299986))
1((0 0 0.00299993))
1((0 0 -0.00299996))
0()
1((0 0 0.00299985))
1((3.46945e-18 0 -0.00299988))
1((0 0 -0.00299991))
1((0 0 0.00299988))
1((-3.46945e-18 0 -0.00299982))
1((0 0 -0.00299985))
0()
1((0 0 0.00299998))
0()
1((0 -5.55112e-17 -0.00299984))
0()
0()
0()
1((0 0 0.00299987))
1((3.46945e-18 0 -0.0029999))
1((0 0 0.0029999))
1((0 0 -0.00299995))
1((0 0 -0.00299993))
1((0 0 0.00299987))
0()
0()
0()
1((0 0 0.00299998))
1((0 0 0.00299993))
0()
0()
0()
0()
0()
0()
0()
2((-0.0014995 -0.0025972 0) (0 0 0.00299986))
1((0 0 0.00299998))
1((0 0 0.00299995))
1((0 0 -0.00299979))
1((0 0 0.00299977))
1((0 0 0.00299974))
1((0 0 -0.00299977))
1((0 0 -0.00299977))
1((0 0 0.00299974))
1((0 0 -0.00299991))
1((0 0 -0.00299981))
0()
1((0 0 0.00299984))
0()
1((0 0 -0.00299979))
1((0 0 -0.00299985))
1((0 0 0.00299979))
1((0 -2.77556e-17 -0.00299986))
1((0 0 0.00299961))
1((0 0 -0.00299993))
0()
1((0 0 0.00299983))
0()
1((0 2.77556e-17 -0.00299986))
1((0 0 -0.00299982))
1((0 0 0.00299988))
1((0 0 -0.00299976))
0()
0()
0()
1((0 0 -0.00299963))
1((0 0 0.00299985))
0()
1((0 0 0.00299978))
1((0 0 -0.00299977))
1((0 0 0.00299972))
1((0 0 -0.0029997))
1((0 0 0.00299977))
0()
0()
1((0 0 -0.00299996))
1((0 0 0.00299997))
1((0 0 0.0029998))
0()
1((0 0 0.00299986))
1((0 0 -0.00299988))
1((0 0 -0.00299989))
1((0 0 0.00299992))
1((0 0 0.00299997))
1((0 0 0.00299988))
1((0 0 0.00299994))
1((0 0 -0.0029999))
1((0 0 -0.00299993))
1((0 0 -0.00299994))
0()
1((0 0 -0.00299994))
1((0 0 0.00299996))
0()
1((-3.46945e-18 0 -0.00299989))
1((0 0 0.00299992))
0()
0()
0()
0()
0()
0()
0()
0()
0()
0()
0()
1((-0.00149884 -0.00259606 0))
1((-0.00149997 -0.00259802 0))
1((0 0 -0.00299996))
1((0 0 -0.00299999))
1((0 0 0.00299985))
0()
1((0 0 -0.00299975))
1((0 0 -0.00299974))
1((0 0 0.0029998))
1((0 0 -0.00299978))
0()
1((0 0 0.00299962))
1((0 0 -0.00299976))
1((0 0 0.00299974))
1((0 0 -0.00299985))
1((0 0 0.00299988))
0()
1((-6.93889e-18 0 -0.00299974))
1((0 0 -0.00299972))
1((0 0 0.00299965))
1((0 0 -0.00299959))
0()
1((0 0 0.00299986))
0()
1((0 0 0.00299985))
1((0 0 0.00299981))
1((0 0 -0.00299991))
1((0 0 -0.0029997))
1((0 0 0.00299983))
1((0 0 0.00299979))
1((0 0 -0.00299991))
1((0 0 0.00299991))
0()
1((0 0 -0.00299994))
1((0 0 0.00299988))
1((0 0 -0.00299989))
1((0 0 0.00299989))
1((0 0 0.00299988))
1((0 0 -0.00299982))
1((0 0 -0.00299982))
1((0 0 0.00299984))
1((0 0 -0.0029999))
1((0 0 -0.00299983))
1((0 0 -0.00299998))
1((0 0 -0.00299993))
1((0 0 0.00299986))
1((0 0 -0.00299993))
0()
1((0 0 0.00299985))
1((0 0 0.00299994))
0()
1((0 0 0.00299998))
1((0 0 0.00299991))
1((0 0 -0.00299993))
1((0 0 0.0029999))
1((0 0 0.00299992))
1((0 0 -0.00299995))
1((0 0 -0.0029999))
1((0 0 0.00299992))
1((0 0 -0.00299992))
1((0 0 -0.0029999))
1((0 0 0.00299987))
1((0 0 -0.00299994))
0()
0()
0()
0()
0()
0()
0()
0()
2((-0.00149984 -0.00259781 4.33681e-19) (0 0 0.00299995))
2((-0.00149917 -0.00259664 4.33681e-19) (0 0 -0.00299977))
1((0 0 -0.00299981))
1((0 0 -0.00299967))
0()
0()
1((0 0 -0.00299998))
1((0 0 -0.00299944))
1((0 0 0.00299969))
1((0 0 -0.00299973))
0()
0()
1((0 0 -0.00299966))
1((0 0 0.00299992))
0()
1((0 0 0.00299985))
1((0 0 -0.00299987))
1((0 0 0.00299966))
0()
1((0 0 0.00299973))
1((0 0 -0.00299973))
1((0 0 0.00299978))
1((0 0 0.00299965))
1((0 0 -0.00299977))
1((-6.93889e-18 0 -0.0029998))
0()
1((0 0 0.00299969))
1((6.93889e-18 0 0.00299985))
1((0 0 -0.00299987))
0()
1((0 0 0.0029999))
0()
1((0 0 -0.00299989))
1((0 0 -0.00299975))
0()
0()
1((0 0 0.00299997))
1((0 0 0.00299996))
1((0 0 0.00299989))
1((0 0 0.00299975))
0()
0()
1((0 0 -0.00299991))
1((0 0 0.00299993))
1((0 0 0.00299994))
1((0 0 -0.00299987))
0()
0()
0()
1((0 0 -0.00299987))
1((0 0 -0.00299982))
0()
1((0 0 0.00299995))
1((0 0 0.00299998))
1((0 0 -0.00299992))
0()
1((0 0 0.00299995))
1((0 0 -0.00299992))
1((0 0 0.00299988))
1((0 0 -0.0029999))
0()
0()
1((0 0 0.00299997))
1((0 0 -0.00299983))
1((0 0 0.00299985))
1((0 0 0.00299981))
0()
0()
0()
0()
0()
2((-0.00149855 -0.00259556 -4.33681e-19) (0 -6.93889e-18 0.00299969))
1((0 0 -0.00299968))
1((0 0 0.0029996))
1((0 0 0.00299986))
0()
1((0 0 0.00299972))
1((6.93889e-18 0 0.00299976))
1((0 0 0.00299948))
1((0 0 0.00299974))
1((0 0 0.00299945))
1((-6.93889e-18 0 -0.00299979))
1((0 0 0.00299973))
0()
1((0 0 0.00299966))
1((0 0 -0.00299968))
1((-6.93889e-18 0 0.00299979))
1((0 0 -0.00299985))
1((0 0 -0.00299978))
1((0 0 0.0029999))
1((0 0 -0.00299981))
1((0 0 0.00299997))
1((0 0 -0.00299994))
1((0 0 0.00299984))
1((0 0 -0.00299966))
1((0 0 0.00299968))
1((0 0 -0.00299972))
0()
1((0 0 -0.00299989))
0()
1((0 0 0.0029999))
0()
1((0 0 -0.00299999))
0()
1((0 0 0.0029998))
1((0 0 -0.00299985))
1((0 0 0.00299989))
1((0 0 -0.00299997))
1((0 0 -0.0029998))
1((0 0 -0.00299995))
1((0 0 0.00299992))
1((0 0 -0.00299974))
1((0 0 0.00299983))
1((0 0 0.00299988))
0()
1((0 0 -0.00299992))
1((0 0 0.00299994))
1((0 0 -0.00299996))
1((0 0 0.0029999))
0()
1((0 0 -0.00299997))
1((0 0 0.00299978))
1((0 0 -0.00299985))
1((-6.93889e-18 0 0.00299986))
1((0 0 0.00299996))
1((0 0 0.00299997))
0()
1((0 0 0.00299992))
1((0 0 -0.00299999))
0()
0()
0()
0()
1((0 0 -0.00299993))
1((0 0 -0.00299991))
0()
1((0 0 -0.00299996))
0()
0()
0()
0()
0()
1((0 0 0.00299981))
0()
1((6.93889e-18 0 -0.00299981))
1((0 0 0.00299979))
1((0 0 0.00299988))
1((0 0 -0.00299988))
1((0 0 -0.00299953))
1((0 0 0.00299992))
1((0 0 -0.00299989))
1((0 0 -0.00299956))
1((0 0 -0.00299939))
1((0 0 0.00299953))
1((0 0 -0.0029996))
0()
1((0 0 0.00299975))
1((0 0 -0.00299996))
1((0 0 0.0029999))
1((0 0 -0.00299995))
1((0 0 -0.00299975))
1((0 0 0.00299978))
0()
1((0 0 0.00299963))
1((0 0 0.00299992))
1((-6.93889e-18 0 -0.00299961))
1((0 0 0.00299971))
1((0 0 -0.00299979))
1((0 0 0.00299973))
1((0 0 0.00299991))
1((0 0 -0.00299985))
0()
0()
0()
0()
1((0 0 0.00299978))
1((0 0 -0.00299976))
1((0 0 -0.00299979))
1((0 0 0.00299978))
1((0 0 -0.00299995))
1((0 0 0.00299996))
0()
1((0 0 -0.00299986))
1((0 0 0.00299988))
1((-6.93889e-18 0 -0.00299983))
0()
1((0 0 0.00299991))
1((-6.93889e-18 0 0.00299985))
1((0 0 -0.00299996))
1((0 0 0.00299999))
1((0 0 -0.00299995))
1((0 0 -0.00299989))
0()
1((0 0 -0.00299995))
1((0 0 0.00299993))
0()
1((0 0 -0.00299994))
1((0 0 -0.00299992))
1((0 0 0.00299994))
1((0 0 -0.00299994))
0()
0()
1((0 0 0.00299988))
1((0 0 -0.00299987))
1((0 0 0.00299993))
0()
0()
0()
0()
0()
0()
0()
0()
2((-0.00149969 -0.00259754 8.67362e-19) (0 0 -0.00299984))
1((0 0 -0.00299984))
1((0 0 -0.00299964))
1((0 0 -0.00299977))
1((0 0 0.00299992))
1((0 0 -0.00299989))
1((0 0 0.00299997))
1((0 0 0.00299999))
0()
1((0 0 0.00299929))
1((0 0 -0.00299968))
1((0 0 -0.00299978))
0()
1((0 0 0.00299968))
1((0 0 -0.00299969))
1((0 0 0.00299997))
0()
1((0 0 -0.00299984))
1((0 0 0.00299966))
1((0 0 -0.0029997))
1((0 0 -0.00299968))
1((0 0 0.00299996))
1((0 0 -0.00299998))
1((0 0 -0.00299991))
1((0 0 -0.00299998))
0()
1((0 0 -0.00299979))
1((0 0 0.00299985))
1((0 0 0.00299986))
1((0 0 0.00299981))
1((-6.93889e-18 0 -0.00299965))
1((0 0 0.0029998))
0()
1((0 0 -0.00299984))
1((0 0 0.00299972))
0()
1((0 0 0.00299995))
1((0 -2.77556e-17 0.00299975))
1((0 0 -0.00299972))
1((0 0 0.00299966))
1((0 0 -0.00299979))
1((0 0 -0.00299994))
1((0 0 0.00299989))
1((0 0 0.00299979))
1((0 0 -0.00299975))
0()
1((0 0 -0.00299988))
0()
0()
1((0 0 -0.00299983))
0()
0()
0()
0()
1((0 0 -0.00299993))
1((0 0 0.00299988))
1((0 0 -0.00299992))
0()
1((0 0 0.00299995))
1((0 0 -0.00299993))
0()
1((0 0 0.00299991))
1((0 0 -0.00299998))
0()
0()
0()
0()
0()
0()
0()
2((-0.00149927 -0.00259681 0) (0 0 -0.00299967))
0()
1((0 0 0.00299934))
1((0 0 -0.00299998))
1((0 0 0.00299999))
1((0 0 0.00299991))
1((0 0 -0.00299998))
1((0 0 0.00299999))
1((0 0 -0.00299953))
0()
1((0 0 -0.00299977))
1((0 0 0.00299978))
0()
1((0 0 -0.00299962))
1((0 0 0.00299962))
1((0 0 -0.00299978))
1((0 0 -0.00299995))
1((0 0 -0.0029998))
1((0 0 0.00299967))
1((0 0 -0.0029997))
1((0 0 0.0029997))
1((0 0 -0.00299988))
0()
1((1.38778e-17 0 0.00299987))
1((0 0 -0.00299987))
1((0 0 0.00299973))
0()
1((0 0 -0.00299979))
0()
1((0 0 0.00299987))
0()
0()
1((0 0 0.00299989))
1((0 0 0.00299998))
0()
1((0 0 -0.00299971))
1((0 0 0.00299993))
1((0 0 -0.0029999))
1((0 0 -0.00299995))
1((0 0 0.00299994))
1((0 0 -0.00299985))
1((0 0 0.00299998))
1((0 0 -0.00299989))
1((0 0 0.0029999))
1((0 0 -0.00299985))
1((0 0 0.00299987))
1((0 0 0.00299982))
1((0 0 0.00299994))
1((0 0 0.00299976))
1((0 0 0.00299985))
1((0 0 -0.00299988))
1((0 0 0.0029999))
1((0 0 -0.00299995))
1((0 0 -0.00299994))
0()
0()
0()
0()
0()
1((0 0 -0.00299998))
1((0 0 0.00299986))
1((0 0 -0.00299989))
0()
0()
0()
0()
0()
0()
0()
1((0 0 -0.00299993))
1((0 0 -0.00299999))
1((0 0 0.00299989))
1((0 0 -0.00299987))
1((0 0 0.00299983))
0()
1((0 0 -0.00299985))
1((0 0 -0.00299964))
1((0 0 0.00299978))
1((0 0 -0.00299984))
1((0 0 0.00299989))
0()
1((0 0 -0.00299995))
1((0 0 0.00299992))
0()
1((0 0 -0.0029999))
0()
0()
1((0 0 -0.0029999))
1((0 0 0.00299994))
1((0 0 -0.0029999))
0()
0()
1((0 0 -0.00299986))
0()
0()
0()
0()
1((0 0 0.00299989))
0()
1((0 0 -0.00299988))
0()
1((0 0 0.00299994))
1((0 0 -0.00299991))
1((0 0 0.00299977))
0()
1((0 0 -0.00299987))
1((0 0 0.00299994))
0()
1((0 0 -0.00299989))
1((0 0 0.00299991))
1((0 0 -0.00299997))
1((0 0 -0.00299992))
1((1.38778e-17 0 0.00299992))
1((0 0 0.00299994))
1((0 0 -0.00299996))
0()
0()
1((0 0 0.00299996))
0()
0()
0()
0()
0()
0()
1((0 0 0.00299992))
1((0 0 -0.00299991))
1((0 0 0.00299992))
1((0 -5.55112e-17 -0.00299994))
1((0 0 -0.0029999))
1((0 0 0.0029998))
1((0 0 -0.0029999))
1((0 0 0.00299986))
0()
1((0 0 -0.00299993))
1((0 0 -0.00299993))
1((0 0 0.00299995))
1((0 0 0.00299986))
0()
0()
0()
0()
1((0 0 -0.00299973))
1((0 0 -0.00299989))
1((0 0 0.00299962))
2((-0.00149983 -0.00259778 0) (1.38778e-17 0 -0.00299991))
1((0 0 -0.00299997))
0()
1((0 0 -0.00299987))
1((0 0 -0.00299974))
1((0 0 0.003))
1((0 0 0.00299982))
2((-0.00149994 -0.00259797 -4.33681e-19) (1.38778e-17 0 0.00299991))
1((0 0 0.00299991))
1((0 0 -0.00299978))
1((0 0 0.0029997))
0()
1((0 0 -0.00299982))
1((0 0 0.00299985))
1((0 0 0.00299979))
1((0 0 -0.00299965))
1((0 -2.77556e-17 0.00299981))
1((0 0 0.00299983))
1((0 0 0.00299976))
1((0 0 -0.00299978))
1((1.38778e-17 0 0.00299995))
1((0 0 0.00299978))
1((0 0 0.0029998))
1((0 0 -0.00299992))
0()
1((0 0 -0.00299988))
1((0 0 -0.00299992))
0()
0()
1((0 0 0.00299996))
1((0 0 0.00299984))
1((0 0 -0.00299995))
1((0 0 0.00299989))
1((0 0 -0.00299965))
1((0 0 -0.00299981))
1((0 0 0.00299998))
1((0 0 -0.0029999))
1((0 0 0.00299987))
0()
1((0 0 0.00299991))
1((0 0 -0.00299994))
0()
1((0 0 0.00299984))
1((0 0 -0.00299997))
1((0 0 -0.00299984))
1((0 0 -0.00299983))
1((0 0 0.0029997))
1((0 0 -0.00299999))
1((0 0 0.00299974))
1((0 0 0.00299977))
1((0 0 -0.00299965))
1((0 0 0.00299974))
1((0 0 -0.00299972))
1((0 0 -0.0029999))
1((0 0 0.00299978))
0()
1((0 0 -0.00299978))
1((0 0 0.00299975))
1((0 0 -0.00299993))
1((0 0 0.00299983))
1((0 0 0.00299984))
0()
1((0 0 -0.00299984))
1((0 0 0.00299996))
1((0 6.93889e-18 0.00299982))
0()
1((0 0 0.00299968))
1((0 0 -0.00299997))
0()
1((0 0 -0.00299976))
1((0 0 -0.0029998))
1((0 0 0.00299998))
1((0 0 0.00299975))
1((0 0 -0.00299969))
1((0 0 0.00299998))
0()
1((0 1.38778e-17 -0.00299971))
0()
1((0 0 0.00299978))
1((0 0 0.00299972))
1((0 0 -0.0029997))
1((0 0 0.00299981))
1((0 0 -0.00299978))
1((0 0 0.00299989))
1((0 0 -0.003))
1((0 0 -0.00299975))
1((0 0 0.00299991))
1((0 0 -0.00299971))
1((0 0 0.00299983))
1((0 0 0.00299987))
1((0 0 -0.00299988))
1((0 0 -0.00299996))
0()
1((0 0 -0.00299988))
1((0 0 -0.00299997))
1((0 0 0.00299962))
1((0 0 0.00299985))
1((0 0 -0.00299992))
1((0 0 0.00299984))
1((0 0 -0.00299976))
0()
1((0 0 0.00299981))
0()
1((0 0 0.00299976))
1((0 1.38778e-17 -0.00299983))
1((0 0 0.00299971))
1((0 0 -0.00299995))
0()
1((0 0 0.00299981))
1((0 0 -0.00299965))
1((0 0 0.00299992))
0()
1((0 0 -0.00299973))
1((0 0 0.00299966))
1((0 0 -0.00299984))
1((0 0 0.00299983))
1((0 0 -0.00299979))
1((0 0 0.00299985))
0()
1((0 0 0.00299956))
1((0 0 -0.00299968))
1((0 0 0.00299977))
0()
1((0 0 -0.0029999))
1((0 0 0.00299979))
1((0 0 -0.00299995))
0()
1((0 0 0.00299992))
1((0 0 0.00299991))
0()
1((0 0 0.00299979))
1((0 0 -0.00299969))
1((0 0 0.00299973))
1((0 0 0.00299996))
1((0 0 -0.0029999))
1((0 0 0.00299984))
1((0 0 -0.00299991))
0()
1((0 0 0.0029999))
1((0 0 -0.00299987))
1((0 0 -0.00299981))
1((0 0 0.00299987))
1((0 0 -0.00299995))
1((0 0 0.00299997))
1((0 0 -0.00299987))
0()
1((0 0 -0.003))
1((0 0 0.00299992))
0()
1((0 0 -0.00299985))
0()
0()
0()
0()
0()
0()
0()
0()
0()
0()
1((-0.00149911 -0.00259654 -4.33681e-19))
0()
0()
1((0 0 -0.00299986))
1((0 0 0.0029998))
0()
1((0 0 -0.00299979))
0()
1((0 0 -0.00299979))
0()
1((0 0 0.00299992))
1((0 0 0.00299978))
0()
1((0 0 -0.00299981))
1((0 0 -0.00299984))
0()
1((0 0 0.00299987))
1((0 0 -0.00299979))
1((0 0 0.00299951))
1((-1.38778e-17 0 -0.00299989))
1((0 0 0.0029999))
1((0 0 -0.00299988))
1((0 0 0.0029999))
1((0 0 -0.00299962))
1((0 0 0.0029999))
0()
1((0 0 0.00299997))
0()
1((0 0 -0.00299963))
1((0 0 0.00299984))
0()
1((0 0 -0.00299985))
1((0 0 -0.00299981))
1((0 0 0.00299995))
1((0 0 -0.00299992))
1((0 0 -0.00299997))
1((0 0 0.00299996))
1((0 0 -0.00299989))
1((0 0 0.00299993))
1((0 0 0.00299986))
1((0 0 -0.00299998))
0()
0()
1((0 0 -0.00299998))
0()
1((0 0 -0.00299991))
1((0 0 -0.00299995))
0()
1((0 0 0.00299997))
0()
1((0 0 0.00299986))
1((0 0 0.00299988))
1((0 0 -0.00299993))
1((0 0 0.00299995))
0()
1((0 0 0.00299994))
1((0 0 -0.00299993))
0()
1((0 0 0.00299995))
1((0 0 -0.00299988))
1((0 0 0.0029999))
1((0 0 0.00299996))
1((1.38778e-17 0 -0.00299996))
0()
0()
0()
0()
0()
0()
0()
0()
2((-0.0014991 -0.00259651 4.33681e-19) (0 0 -0.00299982))
1((0 0 0.00299967))
1((0 0 -0.00299978))
1((0 0 0.00299955))
1((0 0 0.00299997))
0()
1((0 0 0.00299992))
1((0 0 0.00299976))
1((0 0 0.00299986))
1((0 0 -0.00299985))
0()
1((0 0 -0.00299982))
1((0 0 -0.00299976))
1((0 0 0.00299995))
1((0 0 -0.0029998))
1((0 0 0.00299992))
0()
1((0 0 0.00299989))
1((0 0 -0.00299953))
0()
1((0 0 -0.00299997))
1((0 0 0.00299996))
0()
1((1.38778e-17 0 -0.00299991))
1((0 0 0.00299968))
1((0 0 0.0029998))
1((0 0 -0.00299983))
0()
0()
1((0 0 -0.00299981))
1((0 0 0.00299983))
1((0 0 -0.00299981))
1((0 0 0.00299986))
1((0 -2.77556e-17 0.0029998))
1((0 0 0.00299992))
0()
1((0 0 0.00299996))
0()
1((0 0 -0.00299993))
1((0 0 -0.00299985))
1((0 0 0.00299995))
1((0 0 0.003))
1((0 0 -0.00299998))
0()
1((0 0 0.00299999))
1((0 0 -0.00299992))
0()
1((0 0 0.00299978))
1((0 0 -0.00299983))
1((0 0 0.00299987))
0()
1((0 0 -0.00299983))
0()
0()
0()
1((0 0 0.00299987))
0()
1((0 0 -0.003))
1((0 0 0.00299981))
0()
0()
0()
0()
0()
0()
0()
0()
0()
0()
0()
0()
2((0 5.20417e-18 0.00299986) (-0.00149995 -0.00259799 -4.33681e-19))
1((0 0 -0.00299951))
1((0 0 0.00299964))
1((0 -6.93889e-18 -0.00299964))
1((0 0 -0.00299953))
1((0 0 0.00299992))
1((0 0 -0.00299985))
1((0 0 0.0029998))
1((0 0 -0.00299973))
1((0 1.38778e-17 0.00299979))
1((0 0 0.00299982))
1((0 0 -0.0029999))
0()
1((0 0 0.00299972))
1((0 0 0.00299976))
1((0 0 0.00299998))
1((0 0 -0.00299998))
1((0 0 -0.00299979))
1((0 0 0.00299964))
0()
1((0 0 0.00299989))
1((0 0 0.00299998))
1((0 0 -0.00299996))
0()
1((0 0 0.00299991))
1((0 0 -0.00299979))
1((0 0 0.00299987))
1((0 0 0.00299984))
1((0 0 0.0029996))
1((0 0 -0.00299988))
1((0 0 0.00299984))
1((0 0 -0.00299994))
0()
0()
1((0 0 0.00299995))
1((0 0 -0.00299974))
1((0 0 0.00299995))
1((0 0 -0.00299995))
0()
1((0 0 -0.00299979))
0()
1((1.38778e-17 0 -0.00299997))
1((0 0 0.00299997))
1((0 0 -0.00299997))
1((0 0 0.00299996))
0()
1((0 0 0.00299993))
1((0 0 -0.00299984))
1((0 0 0.00299997))
1((0 0 0.00299998))
1((0 0 -0.00299985))
1((0 0 0.00299987))
0()
1((0 0 -0.00299991))
1((0 0 0.00299989))
1((0 0 -0.00299978))
0()
0()
0()
0()
0()
0()
0()
1((0 0 0.00299995))
0()
1((0 0 -0.0029999))
0()
0()
0()
0()
0()
1((0 -0.00299865 4.33681e-19))
0()
1((0 3.46945e-18 0.00299977))
1((0 0 -0.00299964))
1((0 0 0.00299941))
0()
1((0 0 0.00299988))
1((0 0 -0.00299999))
1((0 0 -0.00299983))
1((0 0 -0.00299976))
1((0 0 -0.00299996))
0()
1((0 0 0.00299985))
1((0 0 -0.00299987))
1((0 0 -0.00299965))
0()
1((0 0 -0.00299999))
1((0 0 0.00299995))
1((0 0 0.00299971))
0()
1((0 0 0.003))
1((0 0 -0.00299987))
1((0 0 0.00299987))
1((0 0 0.00299994))
1((0 0 -0.00299993))
1((0 0 -0.0029997))
0()
1((0 0 -0.00299989))
1((0 0 -0.00299967))
1((0 0 0.00299986))
1((0 0 0.00299994))
1((0 0 -0.00299986))
1((0 0 -0.00299997))
1((0 0 0.00299991))
1((0 0 -0.00299995))
0()
1((0 0 0.00299989))
0()
1((0 0 0.00299987))
1((0 0 0.00299978))
1((0 0 -0.00299994))
1((0 0 0.00299995))
0()
1((0 0 -0.00299987))
0()
1((0 0 0.00299989))
1((0 0 -0.00299993))
1((0 0 -0.00299987))
1((0 0 -0.00299991))
1((0 0 0.00299989))
1((0 0 0.0029999))
1((0 0 0.00299993))
1((0 0 0.00299998))
1((0 0 -0.00299989))
1((0 0 0.00299992))
1((0 0 0.00299981))
1((0 0 -0.00299982))
1((0 0 0.00299987))
1((0 0 -0.00299989))
0()
1((0 0 0.00299987))
0()
1((0 0 -0.00299998))
0()
0()
0()
0()
0()
0()
0()
0()
1((0 -1.73472e-18 -0.00299985))
0()
1((0 0 0.00299986))
1((0 0 -0.00299981))
1((0 6.93889e-18 -0.0029997))
0()
1((0 0 -0.00299977))
1((0 0 -0.00299998))
0()
1((0 0 0.00299977))
0()
1((0 0 0.00299978))
1((0 0 -0.00299978))
1((0 0 0.00299981))
1((0 0 0.00299988))
0()
1((0 0 0.00299976))
1((0 0 0.00299991))
1((0 0 -0.00299952))
0()
1((0 0 -0.0029999))
1((0 0 0.00299995))
1((1.38778e-17 0 -0.00299986))
1((0 0 -0.00299994))
1((0 0 0.00299993))
1((0 0 0.00299962))
0()
1((-1.38778e-17 0 0.00299995))
1((0 0 -0.00299969))
0()
0()
0()
1((0 0 -0.00299997))
1((0 0 0.00299996))
1((0 0 -0.00299997))
1((0 0 0.00299997))
0()
1((0 0 0.00299974))
1((0 0 -0.00299954))
1((0 0 0.00299969))
1((0 0 -0.00299978))
1((0 0 -0.00299991))
1((0 0 0.00299986))
1((0 0 -0.00299998))
1((0 0 0.00299999))
1((0 0 -0.00299996))
0()
1((0 0 0.00299979))
1((0 0 -0.00299994))
1((0 0 -0.00299995))
0()
1((0 0 -0.00299985))
1((0 0 0.00299997))
1((0 0 0.00299996))
1((0 0 0.00299994))
1((0 0 0.00299985))
1((0 0 -0.00299988))
1((0 0 0.00299992))
0()
0()
0()
1((0 0 -0.00299993))
0()
1((0 0 0.00299998))
0()
1((0 0 0.00299991))
0()
0()
0()
0()
0()
1((0 0 0.00299975))
1((0 0 0.00299977))
0()
1((0 0 -0.00299984))
1((0 0 0.00299972))
1((0 0 -0.00299982))
1((0 0 0.00299974))
1((0 0 -0.00299983))
1((0 0 -0.00299965))
1((0 0 0.0029995))
1((0 0 -0.0029995))
1((0 0 0.0029997))
0()
1((0 0 -0.00299989))
1((0 0 0.00299969))
1((0 0 -0.00299989))
1((0 0 -0.00299989))
1((0 0 -0.00299972))
1((0 0 0.00299939))
1((0 0 -0.00299985))
0()
1((0 0 0.00299995))
1((0 0 0.00299983))
1((0 0 0.00299997))
1((0 0 -0.00299994))
1((0 0 -0.00299967))
0()
1((0 0 -0.00299994))
1((0 0 0.00299967))
0()
0()
1((0 0 -0.00299992))
1((0 0 -0.00299996))
1((0 0 0.00299997))
1((0 0 0.00299994))
1((0 0 0.00299999))
1((0 0 -0.00299998))
0()
1((0 0 0.00299965))
1((0 0 -0.00299983))
1((0 0 0.00299997))
1((0 0 0.00299991))
1((0 0 0.00299991))
1((0 0 -0.00299988))
1((0 0 -0.00299994))
1((0 0 0.00299989))
0()
1((0 0 -0.0029998))
1((0 0 0.00299998))
1((0 0 0.00299995))
1((0 0 -0.00299998))
0()
0()
0()
1((0 0 -0.00299996))
1((0 0 -0.00299983))
0()
1((0 0 0.0029999))
0()
0()
0()
1((0 0 -0.0029999))
1((0 0 0.00299992))
1((0 0 0.00299998))
0()
1((0 0 -0.00299987))
1((0 0 0.00299994))
0()
0()
0()
0()
2((0 -0.00299842 4.33681e-19) (2.77556e-17 8.67362e-18 0.00299986))
1((0 -1.73472e-18 -0.00299969))
1((0 3.46945e-18 -0.00299995))
1((0 0 0.00299985))
1((0 0 0.00299968))
1((0 0 -0.0029997))
1((0 0 0.00299962))
1((0 0 0.00299981))
1((0 0 -0.00299973))
1((0 0 0.00299991))
1((0 0 0.00299994))
1((0 0 0.00299987))
1((0 0 0.00299988))
0()
1((0 0 -0.00299967))
1((0 0 0.00299999))
1((0 0 0.00299989))
1((0 0 0.00299995))
1((0 0 -0.00299949))
1((0 0 0.00299997))
1((0 0 -0.00299996))
1((0 0 0.00299993))
1((0 0 -0.00299979))
1((0 0 0.00299998))
0()
1((0 0 0.0029997))
1((0 0 -0.00299975))
1((0 0 -0.00299982))
1((0 0 0.00299958))
1((0 0 -0.00299968))
1((0 0 -0.00299994))
1((0 0 0.00299994))
1((0 0 -0.00299996))
0()
1((0 0 0.00299997))
1((0 0 -0.00299994))
0()
0()
1((0 0 -0.00299968))
0()
0()
0()
1((0 0 0.00299994))
1((0 0 0.0029999))
1((0 0 -0.00299989))
1((0 0 0.00299994))
0()
1((0 0 0.00299987))
1((0 0 0.00299993))
1((0 0 -0.00299989))
1((0 0 0.00299992))
1((0 0 0.00299985))
1((0 0 -0.00299995))
0()
0()
1((0 0 0.00299989))
1((0 0 0.00299995))
1((0 0 0.00299995))
1((0 0 -0.00299991))
1((0 0 -0.00299992))
0()
1((0 0 0.00299988))
0()
1((0 0 -0.00299997))
1((0 0 0.00299996))
0()
0()
1((0 0 0.00299995))
0()
0()
0()
1((0 0 -0.00299978))
1((0 0 0.00299992))
1((0 0 -0.00299999))
1((0 0 -0.00299982))
1((0 0 0.00299991))
1((0 0 0.00299986))
1((0 0 -0.00299954))
0()
1((0 0 0.0029999))
1((0 0 0.00299981))
1((0 0 -0.00299983))
1((0 0 -0.00299985))
1((0 0 0.00299997))
1((0 0 -0.00299973))
1((0 0 0.00299962))
1((0 0 -0.00299974))
1((0 0 -0.00299998))
0()
1((0 0 0.0029995))
1((0 2.77556e-17 -0.00299991))
1((0 0 0.00299997))
1((0 0 -0.00299986))
1((2.77556e-17 0 0.00299946))
1((0 0 -0.00299951))
1((0 0 0.00299965))
1((0 0 0.00299999))
1((0 0 -0.00299976))
0()
1((0 0 -0.00299981))
1((0 0 -0.0029999))
1((0 0 0.00299967))
1((0 0 0.00299991))
1((0 0 -0.00299991))
1((0 0 0.00299994))
1((0 0 0.0029999))
1((0 0 -0.00299981))
1((0 0 0.00299979))
1((0 0 -0.00299983))
1((0 0 0.00299972))
1((0 0 0.0029997))
1((0 0 -0.00299965))
1((0 0 -0.00299995))
1((0 0 0.00299995))
1((0 0 0.00299989))
1((0 0 -0.00299993))
1((0 0 0.00299994))
1((0 0 -0.00299991))
1((0 0 0.00299985))
1((0 0 -0.00299997))
1((-2.77556e-17 0 -0.00299999))
0()
1((0 0 -0.00299981))
1((0 0 0.00299998))
0()
0()
1((0 0 0.00299984))
1((0 0 -0.00299984))
1((0 0 -0.00299997))
0()
1((0 0 0.00299991))
0()
1((0 0 -0.0029999))
1((0 0 0.0029999))
1((0 0 -0.00299995))
0()
1((0 0 0.00299988))
1((0 0 -0.00299992))
1((0 0 -0.00299997))
1((0 0 0.00299995))
0()
0()
0()
1((0 -3.46945e-18 0.00299992))
1((0 0 0.00299999))
1((0 0 -0.00299991))
1((0 0 -0.00299981))
0()
1((0 0 0.00299951))
1((0 0 0.00299995))
1((0 0 0.00299999))
0()
1((0 0 -0.00299997))
1((0 -1.38778e-17 -0.00299992))
0()
1((-2.77556e-17 0 0.00299974))
1((0 0 -0.0029999))
1((-2.77556e-17 0 -0.00299956))
0()
1((0 0 -0.00299969))
1((0 0 0.00299986))
0()
1((0 0 -0.00299994))
1((0 0 0.00299985))
0()
1((0 0 -0.00299985))
1((0 0 -0.00299997))
1((0 0 0.00299988))
1((0 0 -0.00299969))
0()
1((0 0 0.00299983))
0()
1((0 0 0.00299982))
1((0 0 -0.0029998))
1((0 0 0.00299994))
1((0 0 -0.00299992))
1((0 0 0.00299967))
0()
1((0 0 -0.0029999))
0()
1((0 0 0.00299991))
0()
1((0 0 0.00299994))
0()
1((0 0 0.00299984))
1((0 0 -0.00299979))
0()
1((0 0 -0.00299993))
1((0 -5.55112e-17 0.00299996))
1((0 0 0.00299994))
1((0 0 -0.00299986))
0()
0()
0()
0()
0()
0()
1((0 0 0.00299984))
0()
1((0 0 -0.00299982))
1((0 0 -0.00299982))
1((0 0 -0.00299989))
1((0 0 -0.00299999))
1((0 0 0.00299982))
1((0 0 0.00299987))
2((-0.00149962 -0.00259742 -4.33681e-19) (0 0 0.00299997))
1((0 0 0.0029998))
0()
1((0 0 -0.0029997))
0()
1((0 0 0.00299981))
0()
1((-0.00149948 -0.00259717 4.33681e-19))
1((0 0 -0.00299976))
1((0 0 0.00299999))
1((0 0 0.00299983))
1((0 0 -0.00299995))
1((-0.00149992 -0.00259794 0))
1((0 0 -0.00299955))
0()
1((0 0 0.00299995))
1((0 0 -0.00299992))
1((0 0 0.00299999))
1((0 0 -0.00299982))
1((0 0 -0.00299986))
0()
0()
0()
1((0 0 0.00299979))
0()
0()
1((0 0 -0.00299992))
1((0 0 -0.00299985))
0()
1((0 0 -0.00299988))
1((0 0 0.00299989))
1((0 0 0.00299983))
1((0 0 0.0029999))
1((0 0 0.00299985))
1((0 0 0.00299974))
1((0 0 0.00299994))
1((0 0 0.00299978))
1((-1.38778e-17 0 -0.00299989))
0()
1((0 0 -0.00299993))
1((0 2.77556e-17 -0.00299965))
1((0 0 0.00299987))
1((0 0 -0.00299984))
1((0 0 -0.00299996))
1((0 0 -0.00299992))
1((0 0 -0.00299993))
0()
1((0 0 0.00299993))
0()
0()
0()
0()
0()
1((0 0 0.00299978))
0()
1((0 0 -0.00299971))
1((0 0 -0.00299967))
1((0 0 0.0029999))
0()
0()
1((0 0 -0.0029998))
1((0 0 -0.00299975))
1((0 0 0.00299975))
1((0 0 -0.00299993))
1((0 0 -0.0029997))
1((0 0 0.0029996))
1((0 0 -0.00299982))
1((0 0 0.00299974))
0()
0()
1((0 0 -0.00299971))
1((0 0 0.0029998))
1((0 0 -0.00299986))
1((0 0 0.00299988))
1((0 0 -0.00299964))
1((0 0 0.00299993))
1((0 0 0.00299984))
0()
0()
1((0 0 -0.00299972))
1((0 0 0.00299969))
1((0 0 -0.00299987))
1((0 0 0.00299985))
0()
1((0 0 -0.00299991))
1((0 0 -0.0029998))
1((0 0 0.00299982))
1((0 0 0.00299986))
1((0 0 -0.00299989))
1((0 0 0.00299992))
0()
0()
1((0 0 0.00299973))
1((0 0 0.00299994))
1((0 0 -0.00299983))
1((0 0 0.00299992))
1((0 0 0.00299995))
1((0 0 -0.00299991))
0()
1((0 0 -0.00299998))
0()
0()
0()
1((0 0 -0.00299997))
1((0 0 0.00299982))
1((0 0 0.00299995))
1((0 0 -0.0029999))
1((0 0 0.00299989))
1((0 0 -0.00299991))
0()
0()
0()
0()
0()
0()
0()
1((0 -0.00299986 0))
1((0 0 0.00299972))
1((0 0 0.00299982))
1((0 0 0.00299955))
1((0 0 -0.00299963))
0()
1((0 0 0.00299974))
1((0 0 0.00299978))
0()
0()
1((0 0 0.00299974))
0()
1((0 0 0.00299986))
1((0 0 0.00299992))
1((0 0 0.00299982))