/*--------------------------------*- C++ -*----------------------------------*\
  =========                 |
  \\      /  F ield         | OpenFOAM: The Open Source CFD Toolbox
   \\    /   O peration     | Website:  https://openfoam.org
    \\  /    A nd           | Version:  10
     \\/     M anipulation  |
\*---------------------------------------------------------------------------*/
FoamFile
{
    format      ascii;
    class       vectorFieldField;
    location    "0/lagrangian/cloud";
    object      collisionRecordsPairData;
}
// * * * * * * * * * * * * * * * * * * * * * * * * * * * * * * * * * * * * * //


3300
(
1((5.44932e-08 4.3732e-08 2.04551e-10))
1((8.69036e-08 3.37215e-07 -4.94303e-08))
2((2.29543e-08 9.21876e-08 1.27576e-08) (-1.27256e-09 3.275e-10 -1.64405e-09))
2((1.27256e-09 -3.275e-10 1.64405e-09) (5.99739e-10 1.71818e-09 -6.38462e-09))
2((-8.95298e-08 -3.45462e-07 -1.21206e-08) (-4.97971e-08 2.50464e-09 -1.25697e-09))
2((5.09702e-08 2.43461e-09 9.91423e-10) (4.97971e-08 -2.50464e-09 1.25697e-09))
3((-5.09702e-08 -2.43461e-09 -9.91423e-10) (-9.63986e-08 -1.14399e-10 -1.75251e-09) (-1.40166e-08 -4.25581e-08 -2.83919e-09))
3((9.63986e-08 1.14399e-10 1.75251e-09) (6.26126e-07 -1.77058e-10 6.26154e-09) (4.8384e-08 2.09157e-07 -1.78588e-08))
3((6.24326e-09 -7.83533e-09 -2.06466e-09) (-6.26126e-07 1.77058e-10 -6.26154e-09) (1.69587e-08 -1.41853e-09 -3.04361e-09))
3((-6.24326e-09 7.83533e-09 2.06466e-09) (-6.17587e-09 3.44982e-08 4.76663e-09) (-3.86317e-08 -5.70747e-08 7.05447e-09))
3((-1.69587e-08 1.41853e-09 3.04361e-09) (8.26571e-09 -1.75122e-08 -4.39354e-10) (-3.03882e-08 -2.31979e-09 1.86678e-09))
2((3.03882e-08 2.31979e-09 -1.86678e-09) (1.99583e-08 1.09835e-10 -3.15644e-09))
2((2.44985e-07 -4.19594e-07 3.39e-09) (-1.99583e-08 -1.09835e-10 3.15644e-09))
2((6.2964e-09 1.08569e-08 1.14194e-09) (-1.44366e-10 2.10809e-11 -1.25726e-10))
2((1.44366e-10 -2.10809e-11 1.25726e-10) (4.95526e-09 -1.71933e-08 4.53415e-09))
4((-2.80736e-07 -9.80143e-08 1.72093e-08) (-1.61784e-07 -5.71825e-08 1.64636e-08) (1.15867e-07 -9.96202e-08 2.37675e-09) (-4.95526e-09 1.71933e-08 -4.53415e-09))
3((2.80736e-07 9.80143e-08 -1.72093e-08) (1.91196e-07 2.29462e-07 -1.042e-08) (-2.21083e-10 -1.34577e-09 7.46415e-09))
2((-8.11011e-08 7.97169e-08 1.85433e-08) (-1.91196e-07 -2.29462e-07 1.042e-08))
4((9.83373e-08 -1.28409e-07 -2.0521e-08) (8.11011e-08 -7.97169e-08 -1.85433e-08) (7.07658e-08 6.89555e-08 4.28443e-09) (8.30431e-08 1.23164e-07 8.74458e-09))
2((-1.02855e-07 2.02122e-08 -3.98039e-09) (-7.07658e-08 -6.89555e-08 -4.28443e-09))
3((1.02855e-07 -2.02122e-08 3.98039e-09) (5.36121e-08 8.69035e-09 2.77807e-09) (5.66211e-08 -7.20539e-08 -4.82847e-09))
2((-5.36121e-08 -8.69035e-09 -2.77807e-09) (-5.36318e-08 -2.08897e-09 -1.17172e-09))
3((1.62171e-07 -1.04517e-07 4.34754e-09) (5.36318e-08 2.08897e-09 1.17172e-09) (-1.83459e-08 -4.69036e-08 8.25449e-09))
4((-1.62171e-07 1.04517e-07 -4.34754e-09) (7.81876e-09 1.26757e-07 -5.33755e-09) (-9.20591e-08 -5.89687e-08 -2.64867e-09) (9.49646e-09 -5.56583e-09 3.96345e-09))
2((9.20591e-08 5.89687e-08 2.64867e-09) (-1.28863e-07 7.52006e-08 6.38942e-09))
3((4.55957e-08 1.16376e-08 -3.40391e-09) (-5.99103e-08 -3.84001e-08 -1.89257e-10) (1.28863e-07 -7.52006e-08 -6.38942e-09))
3((-2.70361e-08 -7.41512e-09 -2.37183e-09) (-4.55957e-08 -1.16376e-08 3.40391e-09) (6.86007e-10 2.129e-08 1.57526e-10))
3((2.70361e-08 7.41512e-09 2.37183e-09) (7.0597e-09 -6.37393e-10 9.27999e-09) (6.12648e-10 -4.49314e-08 1.47193e-08))
2((-6.12648e-10 4.49314e-08 -1.47193e-08) (9.18168e-09 4.52844e-08 -8.99645e-09))
3((-7.0597e-09 6.37393e-10 -9.27999e-09) (-4.92613e-09 -8.68292e-11 -9.46794e-09) (-3.12454e-10 1.51532e-08 5.64987e-10))
3((4.92613e-09 8.68292e-11 9.46794e-09) (-3.02099e-08 1.32644e-10 1.0932e-08) (-1.74873e-08 4.3081e-08 -3.71722e-11))
3((3.02099e-08 -1.32644e-10 -1.0932e-08) (4.17179e-08 -7.32769e-08 -1.24464e-09) (-3.40021e-09 6.30437e-12 -7.03797e-09))
3((-8.7836e-08 1.42245e-07 -2.65027e-09) (-4.17179e-08 7.32769e-08 1.24464e-09) (-3.89155e-08 -6.46858e-08 5.72865e-09))
2((3.40021e-09 -6.30437e-12 7.03797e-09) (3.49129e-08 -8.82082e-11 6.23227e-09))
2((1.76373e-08 3.05425e-08 -4.98849e-11) (-3.69406e-08 -1.00745e-09 3.59466e-09))
2((-2.57937e-07 -5.37338e-08 4.97602e-09) (8.04359e-08 -1.74587e-07 4.86819e-09))
1((3.2008e-08 1.95733e-07 2.10022e-08))
1((4.68793e-10 1.09949e-08 -5.27726e-08))
4((-4.06976e-07 -8.27552e-10 1.0303e-08) (-1.4485e-07 2.27999e-07 2.96433e-08) (-2.2918e-07 -3.06988e-08 -3.43882e-09) (-4.68793e-10 -1.09949e-08 5.27726e-08))
3((2.2918e-07 3.06988e-08 3.43882e-09) (2.28357e-08 -2.39585e-09 1.2726e-08) (1.69215e-07 2.64524e-07 -2.86565e-09))
2((-1.69215e-07 -2.64524e-07 2.86565e-09) (4.59147e-08 1.41072e-10 4.20145e-09))
3((2.49272e-07 1.59856e-08 2.95282e-08) (2.37914e-07 4.11346e-09 2.53886e-08) (2.53039e-08 4.57151e-08 8.80268e-09))
3((-2.28357e-08 2.39585e-09 -1.2726e-08) (-4.52759e-08 -2.80211e-09 -1.24702e-08) (-2.53039e-08 -4.57151e-08 -8.80268e-09))
2((1.32484e-07 -2.4105e-07 -1.01378e-08) (-4.59147e-08 -1.41072e-10 -4.20145e-09))
5((-1.32484e-07 2.4105e-07 1.01378e-08) (1.17672e-07 -1.93317e-07 -6.87639e-10) (2.39217e-08 5.0184e-09 1.31873e-08) (4.52759e-08 2.80211e-09 1.24702e-08) (2.46207e-07 4.49659e-07 7.20032e-09))
3((-2.39217e-08 -5.0184e-09 -1.31873e-08) (8.09717e-07 -2.98033e-07 -3.25856e-08) (-6.51424e-07 -5.85555e-07 -2.96134e-08))
2((6.51424e-07 5.85555e-07 2.96134e-08) (3.63768e-09 -1.6235e-10 -1.27147e-09))
2((-3.63768e-09 1.6235e-10 1.27147e-09) (5.39801e-09 -1.94093e-10 6.22803e-09))
3((-2.42692e-08 1.24237e-07 -5.50762e-08) (-5.39801e-09 1.94093e-10 -6.22803e-09) (1.51868e-07 -1.4061e-11 6.88038e-10))
2((1.95896e-07 -3.14512e-07 2.20716e-08) (-1.51868e-07 1.4061e-11 -6.88038e-10))
4((2.54202e-07 3.43524e-07 1.48609e-08) (3.33678e-07 4.47435e-07 -8.01187e-09) (-1.95896e-07 3.14512e-07 -2.20716e-08) (-1.14694e-07 1.94981e-07 2.02337e-09))
2((1.66066e-07 8.28576e-10 -8.15135e-09) (-2.54202e-07 -3.43524e-07 -1.48609e-08))
3((1.07764e-07 -2.55912e-08 1.88105e-08) (-1.66066e-07 -8.28576e-10 8.15135e-09) (-1.76665e-08 -3.81512e-08 2.38074e-08))
4((-1.07764e-07 2.55912e-08 -1.88105e-08) (-1.03744e-08 2.03163e-08 -1.90198e-08) (-8.80357e-08 -2.02435e-08 -9.51839e-09) (2.41882e-08 4.97831e-08 -5.76372e-09))
3((1.03744e-08 -2.03163e-08 1.90198e-08) (4.43471e-08 -2.56014e-08 2.03034e-08) (-3.19884e-09 2.81762e-08 6.22793e-09))
2((8.80357e-08 2.02435e-08 9.51839e-09) (4.03785e-09 2.39821e-09 9.75396e-09))
2((-4.03785e-09 -2.39821e-09 -9.75396e-09) (-3.96947e-09 1.77096e-09 -9.54039e-09))
3((1.85671e-07 3.27147e-07 2.08788e-08) (8.7672e-08 -5.92836e-10 1.14064e-08) (3.96947e-09 -1.77096e-09 9.54039e-09))
3((-8.7672e-08 5.92836e-10 -1.14064e-08) (-9.20992e-08 1.60466e-07 1.39603e-08) (1.58896e-07 -2.51016e-10 -1.68845e-08))
3((4.59593e-07 -4.23338e-08 6.97262e-09) (-1.58896e-07 2.51016e-10 1.68845e-08) (2.34404e-07 4.05925e-07 -8.47635e-09))
4((-4.59593e-07 4.23338e-08 -6.97262e-09) (-2.22928e-07 -1.92521e-08 -2.32909e-08) (-1.41567e-07 2.444e-07 8.31546e-09) (3.98277e-08 6.90052e-08 -6.29834e-08))
2((2.22928e-07 1.92521e-08 2.32909e-08) (4.22128e-07 7.20606e-10 2.09525e-08))
3((2.21633e-07 -1.03235e-07 -3.10687e-08) (-4.22128e-07 -7.20606e-10 -2.09525e-08) (1.41812e-07 2.45974e-07 -2.05829e-08))
4((-2.21633e-07 1.03235e-07 3.10687e-08) (-1.79007e-08 -2.97458e-08 -2.25922e-08) (-2.30369e-07 -1.06427e-07 -1.53087e-08) (-3.67751e-08 3.25722e-08 4.53427e-08))
2((-1.53183e-08 1.30863e-08 1.68003e-08) (2.30369e-07 1.06427e-07 1.53087e-08))
3((3.78226e-08 -3.25388e-08 -1.4959e-08) (1.53183e-08 -1.30863e-08 -1.68003e-08) (-5.44932e-08 -4.3732e-08 -2.04551e-10))
4((1.88887e-07 -3.2885e-09 -9.46134e-09) (-3.78226e-08 3.25388e-08 1.4959e-08) (9.10384e-08 6.0756e-08 -7.54803e-09) (-4.48527e-08 2.14529e-07 9.80805e-09))
4((-1.88887e-07 3.2885e-09 9.46134e-09) (-1.13932e-07 -3.38387e-10 -3.00362e-10) (6.32481e-08 -2.84702e-07 6.17857e-08) (-8.69036e-08 -3.37215e-07 4.94303e-08))
4((1.73521e-07 -5.51676e-08 9.97875e-09) (1.13932e-07 3.38387e-10 3.00362e-10) (-2.29543e-08 -9.21876e-08 -1.27576e-08) (4.15403e-09 -1.9844e-08 -9.74997e-09))
4((-1.73521e-07 5.51676e-08 -9.97875e-09) (-4.76974e-08 2.27867e-07 -1.48756e-08) (1.39207e-08 3.84247e-09 -4.99306e-09) (-5.99739e-10 -1.71818e-09 6.38462e-09))
4((8.95298e-08 3.45462e-07 1.21206e-08) (-8.64274e-08 4.09165e-07 1.40283e-08) (-1.39207e-08 -3.84247e-09 4.99306e-09) (-2.24296e-08 6.00677e-09 3.49411e-10))
3((2.24296e-08 -6.00677e-09 -3.49411e-10) (1.06731e-07 3.10822e-08 -2.79438e-09) (-2.3169e-08 1.11387e-07 4.67469e-09))
3((-1.06731e-07 -3.10822e-08 2.79438e-09) (1.40166e-08 4.25581e-08 2.83919e-09) (-3.325e-08 1.59388e-07 2.81592e-09))
2((2.22404e-08 -2.13947e-07 1.9874e-08) (-4.8384e-08 -2.09157e-07 1.78588e-08))
3((-1.64795e-07 1.16978e-08 -1.84215e-08) (-1.20662e-07 -2.94079e-08 -1.82632e-08) (3.86317e-08 5.70747e-08 -7.05447e-09))
4((6.17587e-09 -3.44982e-08 -4.76663e-09) (7.50432e-08 -1.2286e-07 1.07712e-09) (1.64795e-07 -1.16978e-08 1.84215e-08) (-5.15228e-09 -7.54635e-09 -1.18738e-09))
3((-8.26571e-09 1.75122e-08 4.39354e-10) (5.15228e-09 7.54635e-09 1.18738e-09) (-5.05401e-09 -3.45861e-10 -9.17338e-10))
1((5.05401e-09 3.45861e-10 9.17338e-10))
4((2.83376e-08 3.80481e-07 3.90219e-09) (-2.44985e-07 4.19594e-07 -3.39e-09) (-6.2964e-09 -1.08569e-08 -1.14194e-09) (-1.52209e-07 1.06221e-07 -2.01989e-08))
3((1.61784e-07 5.71825e-08 -1.64636e-08) (3.83889e-08 1.90281e-08 -2.85338e-08) (1.52209e-07 -1.06221e-07 2.01989e-08))
2((-1.70088e-08 -6.90465e-09 8.58199e-09) (-2.0147e-08 -7.88838e-09 8.73643e-09))
5((2.0147e-08 7.88838e-09 -8.73643e-09) (-9.7051e-08 1.03422e-07 -1.03441e-08) (-1.15867e-07 9.96202e-08 -2.37675e-09) (2.57543e-08 5.73034e-09 1.1211e-08) (2.21083e-10 1.34577e-09 -7.46415e-09))
3((-2.57543e-08 -5.73034e-09 -1.1211e-08) (-8.30431e-08 -1.23164e-07 -8.74458e-09) (-3.9938e-08 -1.33387e-07 -8.7719e-09))
3((-9.83373e-08 1.28409e-07 2.0521e-08) (-9.18547e-08 1.56052e-08 1.49867e-08) (3.64274e-08 7.00342e-08 7.63272e-09))
3((9.18547e-08 -1.56052e-08 -1.49867e-08) (9.77832e-08 -3.36075e-08 -1.2276e-08) (-3.44022e-10 -3.15897e-10 -4.37933e-09))
3((-7.97023e-08 -4.58888e-09 4.59838e-09) (3.44022e-10 3.15897e-10 4.37933e-09) (-5.66211e-08 7.20539e-08 4.82847e-09))
3((7.97023e-08 4.58888e-09 -4.59838e-09) (1.83459e-08 4.69036e-08 -8.25449e-09) (5.82112e-09 -2.57367e-08 -5.09072e-09))
3((-8.32773e-08 -3.11765e-08 2.69162e-09) (2.83035e-08 -1.6532e-08 5.95802e-09) (-7.81876e-09 -1.26757e-07 5.33755e-09))
4((4.93302e-09 7.95353e-08 -3.43145e-09) (5.99103e-08 3.84001e-08 1.89257e-10) (-9.49646e-09 5.56583e-09 -3.96345e-09) (9.3812e-09 -6.22795e-09 1.27973e-09))
2((3.35471e-09 1.7521e-09 4.8075e-09) (-9.3812e-09 6.22795e-09 -1.27973e-09))
2((-1.13981e-08 -7.78629e-08 -3.60827e-09) (-6.86007e-10 -2.129e-08 -1.57526e-10))
3((-9.18168e-09 -4.52844e-08 8.99645e-09) (2.28107e-07 -1.13859e-08 -4.41027e-09) (1.681e-07 4.56311e-08 -8.61802e-09))
5((-2.28107e-07 1.13859e-08 4.41027e-09) (-1.59053e-07 1.57898e-07 -4.30238e-09) (4.78765e-09 2.41268e-08 2.65679e-09) (1.3453e-09 5.02527e-09 8.80408e-10) (-3.33999e-08 -1.04418e-08 5.64079e-09))
2((-4.78765e-09 -2.41268e-08 -2.65679e-09) (3.12454e-10 -1.51532e-08 -5.64987e-10))
3((1.74873e-08 -4.3081e-08 3.71722e-11) (9.80525e-09 -1.30661e-08 -1.32247e-09) (-4.02946e-09 -5.4038e-09 7.29789e-10))
3((3.65835e-08 7.2267e-08 -4.22922e-09) (-9.80525e-09 1.30661e-08 1.32247e-09) (3.89155e-08 6.46858e-08 -5.72865e-09))
3((8.7836e-08 -1.42245e-07 2.65027e-09) (2.70716e-08 3.53217e-08 3.12959e-09) (2.52098e-08 4.37508e-08 1.02756e-08))
3((-2.70716e-08 -3.53217e-08 -3.12959e-09) (-3.71077e-08 -9.31863e-08 -1.42705e-08) (-6.37353e-08 9.07875e-08 -3.00694e-09))
3((3.71077e-08 9.31863e-08 1.42705e-08) (-3.49129e-08 8.82082e-11 -6.23227e-09) (9.49471e-08 -2.21389e-08 -1.92833e-09))
3((-9.49471e-08 2.21389e-08 1.92833e-09) (-2.2305e-09 2.78924e-08 5.05662e-10) (-2.27802e-08 2.63735e-09 2.00728e-10))
1((-3.22042e-08 -1.82736e-08 -5.4817e-11))
1((2.27802e-08 -2.63735e-09 -2.00728e-10))
3((7.19922e-09 -3.6222e-09 -5.14503e-09) (2.35775e-09 1.02747e-07 6.85631e-09) (-5.2768e-09 1.82374e-07 2.67141e-08))
3((8.77103e-08 -4.63541e-08 -5.85342e-09) (3.22042e-08 1.82736e-08 5.4817e-11) (-1.09428e-08 1.21167e-08 -1.08799e-09))
1((1.09428e-08 -1.21167e-08 1.08799e-09))
3((8.43643e-08 1.45373e-07 -1.20146e-08) (-3.26978e-07 5.3679e-07 -2.15387e-08) (-1.76373e-08 -3.05425e-08 4.98849e-11))
3((-7.76488e-08 -1.3425e-07 -3.02654e-08) (-1.32602e-07 -2.43705e-07 -2.15709e-08) (9.20757e-08 -1.60579e-07 -6.70184e-09))
5((-8.04359e-08 1.74587e-07 -4.86819e-09) (-3.71402e-08 3.93258e-08 -7.70162e-09) (1.32602e-07 2.43705e-07 2.15709e-08) (3.69406e-08 1.00745e-09 -3.59466e-09) (5.38729e-09 1.30449e-10 -2.57221e-08))
4((2.57937e-07 5.37338e-08 -4.97602e-09) (-3.2008e-08 -1.95733e-07 -2.10022e-08) (4.06976e-07 8.27552e-10 -1.0303e-08) (6.96515e-09 -1.26874e-08 -1.36379e-08))
3((-5.38729e-09 -1.30449e-10 2.57221e-08) (0 0 0) (-6.96515e-09 1.26874e-08 1.36379e-08))
2((-1.6083e-09 -5.07759e-10 6.52288e-09) (0 0 0))
3((2.38885e-07 -3.81394e-07 -2.28549e-08) (1.4485e-07 -2.27999e-07 -2.96433e-08) (-2.49272e-07 -1.59856e-08 -2.95282e-08))
4((-2.38885e-07 3.81394e-07 2.28549e-08) (-4.67241e-07 -2.31751e-08 9.27912e-09) (-7.80281e-08 -1.36615e-07 2.47854e-08) (-1.62321e-07 2.51684e-07 1.05978e-08))
4((4.67241e-07 2.31751e-08 -9.27912e-09) (4.15289e-09 8.00404e-09 -1.50952e-08) (2.91671e-07 5.43367e-07 -1.31763e-08) (-2.028e-07 -7.31223e-09 -2.92211e-08))
4((-1.01872e-07 1.64399e-07 -3.39925e-08) (-2.46207e-07 -4.49659e-07 -7.20032e-09) (-2.91671e-07 -5.43367e-07 1.31763e-08) (-2.37914e-07 -4.11346e-09 -2.53886e-08))
3((-4.40682e-07 1.75473e-07 1.93129e-08) (-1.17672e-07 1.93317e-07 6.87639e-10) (-1.21543e-07 -2.2465e-07 2.61718e-08))
3((2.45634e-07 5.48109e-08 -2.93396e-08) (4.40682e-07 -1.75473e-07 -1.93129e-08) (-1.21613e-07 -2.24646e-07 -1.57543e-08))
3((-8.09717e-07 2.98033e-07 3.25856e-08) (-4.57917e-07 7.80461e-07 5.22484e-08) (5.68848e-09 -1.49986e-09 -4.80328e-08))
2((-5.68848e-09 1.49986e-09 4.80328e-08) (2.61775e-09 -5.72023e-11 4.80588e-08))
4((-6.63636e-07 5.65959e-07 -1.27743e-08) (-5.72221e-07 -1.19575e-08 -4.33888e-10) (1.91644e-07 3.34584e-07 -4.63828e-08) (4.20232e-08 7.71764e-08 7.45855e-08))
4((-1.3877e-07 1.26215e-07 3.88716e-09) (2.42692e-08 -1.24237e-07 5.50762e-08) (-1.91644e-07 -3.34584e-07 4.63828e-08) (-2.61775e-09 5.72023e-11 -4.80588e-08))
4((1.3877e-07 -1.26215e-07 -3.88716e-09) (3.86318e-07 -6.66177e-07 -1.18271e-08) (-3.33678e-07 -4.47435e-07 8.01187e-09) (1.12195e-07 1.96641e-07 1.46163e-08))
4((-3.86318e-07 6.66177e-07 1.18271e-08) (-4.48475e-07 9.19021e-07 3.27137e-08) (-4.91764e-07 -5.41603e-09 5.38648e-08) (-7.23511e-08 -9.82261e-08 -2.62591e-08))
4((-3.01316e-08 -4.10955e-08 2.20844e-08) (7.23511e-08 9.82261e-08 2.62591e-08) (1.64512e-07 -3.09442e-07 -3.3587e-09) (1.14694e-07 -1.94981e-07 -2.02337e-09))
3((3.01316e-08 4.10955e-08 -2.20844e-08) (1.76665e-08 3.81512e-08 -2.38074e-08) (1.09589e-09 -2.13346e-10 3.03845e-10))
3((-1.35336e-08 -5.1863e-08 5.32187e-09) (-2.41882e-08 -4.97831e-08 5.76372e-09) (-1.09589e-09 2.13346e-10 -3.03845e-10))
4((1.01758e-08 2.00085e-08 -2.31584e-09) (3.19884e-09 -2.81762e-08 -6.22793e-09) (-2.57923e-08 1.76604e-08 7.23387e-11) (1.04509e-07 7.34729e-08 6.99544e-09))
3((-1.03111e-07 5.19144e-08 -2.51745e-08) (-4.43471e-08 2.56014e-08 -2.03034e-08) (-1.04509e-07 -7.34729e-08 -6.99544e-09))
3((-2.55324e-08 -3.7789e-07 -1.67955e-08) (-1.85671e-07 -3.27147e-07 -2.08788e-08) (-1.91601e-08 5.98756e-09 7.00295e-11))
2((1.91601e-08 -5.98756e-09 -7.00295e-11) (7.60116e-09 -6.61608e-09 -5.97618e-11))
4((9.20992e-08 -1.60466e-07 -1.39603e-08) (-6.36486e-08 -2.07913e-07 -5.15558e-09) (4.37764e-07 -3.92789e-08 -2.98671e-08) (-2.34404e-07 -4.05925e-07 8.47635e-09))
3((-4.37764e-07 3.92789e-08 2.98671e-08) (-1.93863e-07 3.33679e-07 2.74124e-08) (-3.98277e-08 -6.90052e-08 6.29834e-08))
4((2.96938e-07 -2.40003e-07 -1.30052e-08) (3.32279e-09 5.7401e-09 2.86286e-08) (3.55634e-08 1.8686e-08 3.92378e-09) (1.93863e-07 -3.33679e-07 -2.74124e-08))
3((2.72525e-07 2.36608e-08 -2.15043e-09) (1.41567e-07 -2.444e-07 -8.31546e-09) (-3.32279e-09 -5.7401e-09 -2.86286e-08))
4((-2.72525e-07 -2.36608e-08 2.15043e-09) (-7.75445e-09 3.51602e-09 -9.78706e-09) (-1.41812e-07 -2.45974e-07 2.05829e-08) (-3.82641e-09 4.14423e-08 9.42933e-09))
4((1.79007e-08 2.97458e-08 2.25922e-08) (-1.33306e-07 -9.40742e-08 1.61209e-08) (-1.22127e-07 1.28872e-07 2.41219e-08) (7.75445e-09 -3.51602e-09 9.78706e-09))
2((1.22127e-07 -1.28872e-07 -2.41219e-08) (1.44957e-07 -9.56389e-08 -2.11203e-08))
2((3.85185e-08 -3.24035e-08 -3.87938e-08) (3.67751e-08 -3.25722e-08 -4.53427e-08))
3((-9.10384e-08 -6.0756e-08 7.54803e-09) (-3.22792e-08 -5.74133e-08 6.2281e-10) (-3.85185e-08 3.24035e-08 3.87938e-08))
4((-2.1187e-07 -2.30886e-07 3.52299e-08) (-1.7891e-07 -5.97261e-08 3.48746e-08) (4.48527e-08 -2.14529e-07 -9.80805e-09) (7.39493e-09 -3.20622e-08 -3.34133e-08))
4((-6.32481e-08 2.84702e-07 -6.17857e-08) (-5.62874e-08 2.10808e-07 -5.82392e-08) (1.7891e-07 5.97261e-08 -3.48746e-08) (9.45493e-08 -2.07702e-10 -1.79458e-08))
3((-1.01255e-07 2.74363e-08 1.27945e-08) (-9.45493e-08 2.07702e-10 1.79458e-08) (-4.15403e-09 1.9844e-08 9.74997e-09))
4((4.9445e-07 1.39861e-07 1.62078e-09) (1.91525e-07 2.06817e-07 1.32001e-08) (4.76974e-08 -2.27867e-07 1.48756e-08) (1.01255e-07 -2.74363e-08 -1.27945e-08))
2((-8.52653e-09 -4.95652e-09 -4.86615e-09) (6.5056e-10 -7.7363e-09 5.17349e-09))
4((-4.9445e-07 -1.39861e-07 -1.62078e-09) (8.64274e-08 -4.09165e-07 -1.40283e-08) (-2.13026e-07 4.6307e-08 -7.32577e-09) (-6.5056e-10 7.7363e-09 -5.17349e-09))
4((2.13026e-07 -4.6307e-08 7.32577e-09) (2.78942e-07 7.7184e-08 1.49939e-08) (-2.86343e-09 2.68364e-09 2.81548e-09) (2.3169e-08 -1.11387e-07 -4.67469e-09))
3((-2.78942e-07 -7.7184e-08 -1.49939e-08) (-2.20353e-07 5.42012e-09 -1.64502e-08) (3.325e-08 -1.59388e-07 -2.81592e-09))
4((2.20353e-07 -5.42012e-09 1.64502e-08) (-3.70477e-08 3.47935e-08 -2.01619e-08) (-2.22404e-08 2.13947e-07 -1.9874e-08) (1.20662e-07 2.94079e-08 1.82632e-08))
3((3.70477e-08 -3.47935e-08 2.01619e-08) (3.94946e-08 2.16405e-07 1.54858e-08) (2.56541e-07 -2.08423e-08 2.3549e-08))
3((-2.56541e-07 2.08423e-08 -2.3549e-08) (-3.54319e-07 -8.47977e-08 -3.27829e-08) (-2.75553e-08 -1.44925e-07 -2.50254e-08))
5((3.13427e-08 1.20409e-08 1.80757e-08) (-7.50432e-08 1.2286e-07 -1.07712e-09) (7.81723e-08 -6.70644e-08 1.2414e-08) (3.54319e-07 8.47977e-08 3.27829e-08) (1.3298e-09 8.79951e-09 -8.88646e-09))
2((-3.10042e-08 -1.29098e-08 -2.58336e-08) (-3.13427e-08 -1.20409e-08 -1.80757e-08))
5((3.10042e-08 1.29098e-08 2.58336e-08) (-2.83376e-08 -3.80481e-07 -3.90219e-09) (2.96411e-07 -2.56317e-07 6.53768e-09) (-3.83889e-08 -1.90281e-08 2.85338e-08) (-2.12275e-08 -1.10888e-07 6.87959e-09))
4((-2.86549e-07 2.65342e-07 -3.04121e-09) (-2.96411e-07 2.56317e-07 -6.53768e-09) (1.70088e-08 6.90465e-09 -8.58199e-09) (-1.28706e-08 -5.04862e-09 1.46689e-08))
4((2.86549e-07 -2.65342e-07 3.04121e-09) (-3.36983e-08 -1.80616e-07 -1.16957e-09) (2.78274e-07 1.01565e-07 9.93417e-09) (-2.70555e-09 3.65156e-10 -5.82553e-09))
4((-2.78274e-07 -1.01565e-07 -9.93417e-09) (-1.91859e-07 -8.82174e-08 -9.26048e-09) (-1.38719e-08 1.24518e-08 -1.68601e-08) (2.55577e-08 1.41495e-07 -5.33896e-09))
4((1.91859e-07 8.82174e-08 9.26048e-09) (2.08335e-07 2.09438e-08 1.37345e-08) (9.7051e-08 -1.03422e-07 1.03441e-08) (3.9938e-08 1.33387e-07 8.7719e-09))
3((-1.08025e-07 9.9447e-08 -1.69039e-08) (-2.08335e-07 -2.09438e-08 -1.37345e-08) (-3.64274e-08 -7.00342e-08 -7.63272e-09))
4((1.08025e-07 -9.9447e-08 1.69039e-08) (-2.93954e-08 -1.30616e-08 1.57988e-09) (-3.52197e-08 -3.10773e-07 2.39723e-09) (-9.79157e-08 7.20787e-08 6.12843e-09))
4((2.93954e-08 1.30616e-08 -1.57988e-09) (4.07795e-08 3.63484e-08 2.56833e-09) (8.50315e-10 7.55064e-09 -1.35168e-08) (-2.51887e-08 1.85701e-08 -7.71662e-10))
3((-1.29848e-07 -1.26927e-08 6.44832e-09) (-9.77832e-08 3.36075e-08 1.2276e-08) (-4.07795e-08 -3.63484e-08 -2.56833e-09))
4((1.29848e-07 1.26927e-08 -6.44832e-09) (8.32773e-08 3.11765e-08 -2.69162e-09) (-4.91999e-10 -3.60446e-08 9.51779e-09) (-5.82112e-09 2.57367e-08 5.09072e-09))
2((1.47401e-08 5.68707e-09 -2.10875e-09) (1.4095e-08 8.16009e-09 -5.50666e-10))
5((7.09681e-09 -8.01322e-09 5.78272e-09) (-2.83035e-08 1.6532e-08 -5.95802e-09) (-4.93302e-09 -7.95353e-08 3.43145e-09) (-1.4095e-08 -8.16009e-09 5.50666e-10) (-3.35471e-09 -1.7521e-09 -4.8075e-09))
4((-7.09681e-09 8.01322e-09 -5.78272e-09) (1.0966e-07 5.07514e-08 -9.876e-09) (2.99355e-08 1.17304e-07 2.27339e-09) (-1.60972e-08 1.59405e-08 -1.40466e-08))
4((-1.0966e-07 -5.07514e-08 9.876e-09) (-1.681e-07 -4.56311e-08 8.61802e-09) (2.91301e-08 -2.90282e-08 3.24814e-09) (1.13981e-08 7.78629e-08 3.60827e-09))
3((7.12181e-08 -3.76556e-09 8.69434e-09) (-2.91301e-08 2.90282e-08 -3.24814e-09) (3.15952e-08 1.44346e-08 -2.15524e-09))
3((-7.12181e-08 3.76556e-09 -8.69434e-09) (-3.42783e-08 4.58859e-08 -6.03589e-09) (-1.3453e-09 -5.02527e-09 -8.80408e-10))
3((1.59053e-07 -1.57898e-07 4.30238e-09) (1.90698e-08 -2.55378e-08 -5.99452e-09) (2.27039e-07 2.71966e-08 1.45285e-08))
2((3.33999e-08 1.04418e-08 -5.64079e-09) (4.02946e-09 5.4038e-09 -7.29789e-10))
4((3.62116e-08 8.45164e-08 2.23692e-09) (-3.65835e-08 -7.2267e-08 4.22922e-09) (-6.46824e-08 -1.74992e-09 -7.47427e-09) (-2.27039e-07 -2.71966e-08 -1.45285e-08))
3((6.46824e-08 1.74992e-09 7.47427e-09) (5.90055e-08 -8.3866e-08 -9.54964e-09) (-2.52098e-08 -4.37508e-08 -1.02756e-08))
5((4.12423e-08 1.54665e-07 1.21078e-09) (-6.50739e-09 -1.54008e-09 -2.02567e-09) (3.8481e-08 -3.22227e-09 1.83947e-09) (-5.90055e-08 8.3866e-08 9.54964e-09) (1.81789e-08 3.18442e-08 -3.07469e-10))
2((-1.81789e-08 -3.18442e-08 3.07469e-10) (-2.04227e-08 -2.63273e-08 3.74481e-09))
4((6.37353e-08 -9.07875e-08 3.00694e-09) (2.04227e-08 2.63273e-08 -3.74481e-09) (5.63727e-08 3.50025e-08 -6.15579e-09) (-7.19922e-09 3.6222e-09 5.14503e-09))
3((4.55803e-08 1.23553e-08 1.06288e-08) (-2.35775e-09 -1.02747e-07 -6.85631e-09) (4.35683e-08 -6.07895e-09 1.50886e-09))
3((2.79284e-07 4.81625e-07 -3.12474e-08) (2.60087e-08 4.66092e-08 -2.50809e-08) (-1.96119e-07 1.22669e-09 -3.22852e-08))
3((-2.60087e-08 -4.66092e-08 2.50809e-08) (-5.07901e-08 8.79916e-08 -2.57277e-08) (-8.43643e-08 -1.45373e-07 1.20146e-08))
4((1.90036e-07 -3.47399e-07 1.5808e-08) (7.76488e-08 1.3425e-07 3.02654e-08) (3.26978e-07 -5.3679e-07 2.15387e-08) (2.07673e-07 7.01463e-10 2.80534e-08))
3((-2.07673e-07 -7.01463e-10 -2.80534e-08) (-1.87006e-07 2.7411e-07 -1.03939e-08) (-9.20757e-08 1.60579e-07 6.70184e-09))
3((-1.97216e-09 -6.50361e-08 -1.20353e-08) (3.71402e-08 -3.93258e-08 7.70162e-09) (1.6083e-09 5.07759e-10 -6.52288e-09))
4((1.97216e-09 6.50361e-08 1.20353e-08) (-1.42194e-07 2.12504e-07 -1.97542e-08) (-2.87544e-07 -5.21925e-08 3.50939e-08) (-2.37515e-07 -4.76055e-07 5.63589e-08))
3((6.34596e-08 -1.35997e-07 -2.32236e-08) (2.87544e-07 5.21925e-08 -3.50939e-08) (7.80281e-08 1.36615e-07 -2.47854e-08))
4((-9.66372e-10 -5.34848e-11 8.56395e-09) (3.09561e-07 9.88671e-09 -7.29501e-09) (-4.15289e-09 -8.00404e-09 1.50952e-08) (1.62321e-07 -2.51684e-07 -1.05978e-08))
3((2.68314e-08 5.27912e-08 1.55267e-08) (9.49966e-08 2.24941e-07 2.14547e-08) (-3.09561e-07 -9.88671e-09 7.29501e-09))
5((1.40899e-08 -7.83184e-09 4.50804e-08) (1.21543e-07 2.2465e-07 -2.61718e-08) (-2.68314e-08 -5.27912e-08 -1.55267e-08) (1.01872e-07 -1.64399e-07 3.39925e-08) (2.028e-07 7.31223e-09 2.92211e-08))
4((-4.06544e-08 2.18687e-07 6.13533e-09) (-1.40899e-08 7.83184e-09 -4.50804e-08) (1.21613e-07 2.24646e-07 1.57543e-08) (-1.50817e-08 -2.44098e-09 -6.40601e-08))
3((1.50817e-08 2.44098e-09 6.40601e-08) (-6.57439e-08 -1.84804e-08 5.99574e-08) (9.61181e-08 -1.02218e-07 7.03646e-09))
4((-2.45634e-07 -5.48109e-08 2.93396e-08) (5.72221e-07 1.19575e-08 4.33888e-10) (4.57917e-07 -7.80461e-07 -5.22484e-08) (2.332e-08 -3.6207e-08 -2.6651e-08))
4((3.02388e-08 -3.21234e-08 -1.17934e-08) (-2.332e-08 3.6207e-08 2.6651e-08) (6.57439e-08 1.84804e-08 -5.99574e-08) (-4.20232e-08 -7.71764e-08 -7.45855e-08))
4((-1.99265e-08 1.73398e-07 1.1995e-08) (-3.02388e-08 3.21234e-08 1.17934e-08) (2.72323e-07 1.36052e-08 7.0597e-09) (2.21481e-07 5.43204e-08 1.27004e-08))
4((3.2498e-07 -6.1769e-07 7.96819e-08) (6.63636e-07 -5.65959e-07 1.27743e-08) (4.91764e-07 5.41603e-09 -5.38648e-08) (-1.12195e-07 -1.96641e-07 -1.46163e-08))
4((-9.60538e-08 8.26754e-07 -3.88225e-08) (-3.2498e-07 6.1769e-07 -7.96819e-08) (-8.02686e-08 -4.59429e-09 -1.1914e-07) (-2.72323e-07 -1.36052e-08 -7.0597e-09))
4((9.30111e-07 -6.55955e-07 1.04765e-08) (4.48475e-07 -9.19021e-07 -3.27137e-08) (8.02686e-08 4.59429e-09 1.1914e-07) (-1.50268e-07 -2.02165e-07 -1.01104e-08))
4((-1.64512e-07 3.09442e-07 3.3587e-09) (1.50268e-07 2.02165e-07 1.01104e-08) (-8.00457e-08 5.8322e-08 -2.64766e-09) (-4.0378e-08 -2.57348e-08 2.0474e-09))
2((4.0378e-08 2.57348e-08 -2.0474e-09) (1.35336e-08 5.1863e-08 -5.32187e-09))
3((6.71761e-08 2.59434e-08 4.4493e-09) (-1.01758e-08 -2.00085e-08 2.31584e-09) (8.9989e-08 -6.18516e-08 9.93196e-09))
3((-8.9989e-08 6.18516e-08 -9.93196e-09) (-3.45605e-08 1.60263e-07 -9.35643e-09) (4.3291e-08 7.27947e-08 4.50086e-10))
3((2.57923e-08 -1.76604e-08 -7.23387e-11) (-4.3291e-08 -7.27947e-08 -4.50086e-10) (-2.19918e-08 7.87457e-09 2.08798e-09))
3((2.55324e-08 3.7789e-07 1.67955e-08) (1.32826e-09 2.55786e-07 2.46169e-08) (1.03111e-07 -5.19144e-08 2.51745e-08))
2((-5.57978e-08 -3.65503e-08 -5.81995e-09) (-5.75766e-08 -3.23122e-08 -1.11415e-08))
4((6.36486e-08 2.07913e-07 5.15558e-09) (-9.9441e-09 1.97805e-07 -9.02047e-10) (5.75766e-08 3.23122e-08 1.11415e-08) (-7.60116e-09 6.61608e-09 5.97618e-11))
2((-2.52836e-08 -1.60717e-08 -4.88785e-09) (-3.55634e-08 -1.8686e-08 -3.92378e-09))
3((-6.03274e-08 -3.37958e-08 -1.61494e-08) (-5.94513e-08 -2.69652e-08 -2.08128e-08) (-1.24564e-08 1.42512e-08 -6.75877e-09))
4((5.94513e-08 2.69652e-08 2.08128e-08) (-1.01772e-07 -7.4471e-08 1.96101e-08) (-2.96938e-07 2.40003e-07 1.30052e-08) (-1.07106e-07 1.23033e-07 2.10061e-08))
4((1.01772e-07 7.4471e-08 -1.96101e-08) (1.33306e-07 9.40742e-08 -1.61209e-08) (3.82641e-09 -4.14423e-08 -9.42933e-09) (-1.34282e-08 1.55617e-08 -4.22638e-09))
2((-1.09919e-08 -8.21492e-09 7.09632e-09) (1.34282e-08 -1.55617e-08 4.22638e-09))
3((9.0443e-08 6.39202e-08 -1.44131e-08) (8.68202e-08 6.60837e-08 -1.0267e-08) (4.22268e-09 -2.47208e-09 -4.24632e-09))
4((-2.93132e-07 1.17073e-07 1.57887e-08) (-1.44957e-07 9.56389e-08 2.11203e-08) (-8.68202e-08 -6.60837e-08 1.0267e-08) (3.22792e-08 5.74133e-08 -6.2281e-10))
4((2.93132e-07 -1.17073e-07 -1.57887e-08) (2.1187e-07 2.30886e-07 -3.52299e-08) (8.74018e-09 5.24717e-09 -8.19856e-09) (6.30353e-08 -1.70007e-08 4.24668e-09))
4((-5.19167e-08 -1.79013e-08 1.47747e-08) (3.96007e-09 4.40743e-09 8.79265e-09) (-7.39493e-09 3.20622e-08 3.34133e-08) (-6.30353e-08 1.70007e-08 -4.24668e-09))
4((7.62051e-07 -5.46084e-09 3.15789e-09) (5.62874e-08 -2.10808e-07 5.82392e-08) (5.19167e-08 1.79013e-08 -1.47747e-08) (2.08385e-08 4.99669e-07 4.07548e-08))
4((-7.62051e-07 5.46084e-09 -3.15789e-09) (-1.91525e-07 -2.06817e-07 -1.32001e-08) (1.84952e-08 5.55726e-07 -3.39128e-08) (1.59317e-07 -9.51958e-08 1.01107e-08))
4((-1.59317e-07 9.51958e-08 -1.01107e-08) (8.52653e-09 4.95652e-09 4.86615e-09) (8.75227e-09 1.98402e-07 2.31495e-08) (-9.8255e-09 4.56e-09 -4.31413e-08))
3((1.03624e-08 7.86169e-09 6.55678e-08) (4.28481e-09 1.84202e-09 1.21045e-08) (9.8255e-09 -4.56e-09 4.31413e-08))
2((-4.28481e-09 -1.84202e-09 -1.21045e-08) (-1.64548e-08 -1.44158e-08 -1.61346e-08))
3((4.15853e-09 -1.10898e-08 -7.2791e-09) (2.86343e-09 -2.68364e-09 -2.81548e-09) (1.64548e-08 1.44158e-08 1.61346e-08))
4((-4.15853e-09 1.10898e-08 7.2791e-09) (1.02408e-07 -1.08822e-08 4.71503e-09) (8.76819e-08 1.14245e-07 7.99521e-09) (7.33459e-09 -1.71788e-08 9.02035e-09))
5((-1.02408e-07 1.08822e-08 -4.71503e-09) (-3.94946e-08 -2.16405e-07 -1.54858e-08) (1.67922e-07 -1.25174e-08 -1.11527e-08) (1.10502e-07 1.51024e-07 -2.1709e-08) (2.8328e-08 -6.08009e-08 2.5877e-08))
5((1.09838e-08 3.3955e-09 1.31102e-08) (1.69073e-07 2.47608e-07 2.80529e-08) (-1.67922e-07 1.25174e-08 1.11527e-08) (2.75553e-08 1.44925e-07 2.50254e-08) (7.07119e-09 -1.16446e-08 -7.02447e-11))
4((-1.09838e-08 -3.3955e-09 -1.31102e-08) (-1.18861e-07 -4.11677e-08 -2.5119e-08) (-1.3298e-09 -8.79951e-09 8.88646e-09) (6.75399e-08 -8.31208e-08 8.08338e-09))
4((-7.81723e-08 6.70644e-08 -1.2414e-08) (3.98378e-08 -5.3218e-08 -1.41705e-08) (-9.49811e-08 -3.74282e-08 1.72975e-08) (1.18861e-07 4.11677e-08 2.5119e-08))
4((9.49811e-08 3.74282e-08 -1.72975e-08) (1.28706e-08 5.04862e-09 -1.46689e-08) (2.12275e-08 1.10888e-07 -6.87959e-09) (3.32567e-08 -3.55799e-08 -5.7162e-09))
2((-3.32567e-08 3.55799e-08 5.7162e-09) (8.51376e-09 4.84464e-08 2.16025e-09))
4((3.36983e-08 1.80616e-07 1.16957e-09) (-8.43902e-08 -3.00168e-08 -1.08289e-08) (-9.73243e-08 8.26339e-08 -4.36458e-09) (4.15343e-08 2.29788e-07 1.26857e-08))
4((5.27199e-08 -4.55e-08 1.00705e-08) (2.70555e-09 -3.65156e-10 5.82553e-09) (-6.92141e-09 -3.75551e-08 -6.40868e-10) (-2.55577e-08 -1.41495e-07 5.33896e-09))
2((1.38719e-08 -1.24518e-08 1.68601e-08) (1.5556e-08 -1.27194e-08 1.56664e-08))
4((-2.61113e-07 -3.51701e-08 -2.41555e-08) (-9.76281e-08 -3.53445e-08 -8.16852e-09) (-3.3701e-08 -1.90696e-07 -1.95611e-08) (-1.5556e-08 1.27194e-08 -1.56664e-08))
5((2.61113e-07 3.51701e-08 2.41555e-08) (-2.26443e-09 -1.234e-08 -2.40181e-09) (3.52197e-08 3.10773e-07 -2.39723e-09) (4.58788e-09 1.47522e-09 2.65841e-08) (-9.39814e-08 7.95215e-08 4.92773e-10))
5((-4.58788e-09 -1.47522e-09 -2.65841e-08) (1.06286e-07 -8.96967e-08 3.01785e-09) (-1.01957e-08 -5.01612e-09 -1.25984e-08) (9.79157e-08 -7.20787e-08 -6.12843e-09) (-8.50315e-10 -7.55064e-09 1.35168e-08))
4((-1.46519e-08 -5.8403e-09 7.15283e-09) (1.01957e-08 5.01612e-09 1.25984e-08) (2.51887e-08 -1.85701e-08 7.71662e-10) (6.87376e-08 -5.80321e-08 -2.43876e-09))