/*--------------------------------*- C++ -*----------------------------------*\
  =========                 |
  \\      /  F ield         | OpenFOAM: The Open Source CFD Toolbox
   \\    /   O peration     | Website:  https://openfoam.org
    \\  /    A nd           | Version:  10
     \\/     M anipulation  |
\*---------------------------------------------------------------------------*/
FoamFile
{
    format      ascii;
    class       labelFieldField;
    location    "0/lagrangian/cloud";
    object      collisionRecordsWallAccessed;
}
// * * * * * * * * * * * * * * * * * * * * * * * * * * * * * * * * * * * * * //


3300
(
2{0}
2{0}
2{0}
0()
1(0)
1(0)
2{0}
2{0}
2{0}
1(0)
1(0)
2{0}
1(0)
2{0}
0()
1(0)
0()
2{0}
0()
2{0}
1(0)
1(0)
2{0}
1(0)
1(0)
1(0)
1(0)
2{0}
0()
1(0)
1(0)
1(0)
0()
1(0)
1(0)
2{0}
2{0}
2{0}
1(0)
1(0)
2{0}
1(0)
1(0)
1(0)
1(0)
1(0)
2{0}
1(0)
2{0}
1(0)
1(0)
2{0}
2{0}
1(0)
1(0)
2{0}
0()
2{0}
2{0}
1(0)
1(0)
2{0}
2{0}
1(0)
1(0)
1(0)
1(0)
1(0)
1(0)
1(0)
1(0)
1(0)
0()
0()
0()
1(0)
0()
0()
1(0)
1(0)
1(0)
0()
1(0)
1(0)
1(0)
1(0)
1(0)
1(0)
0()
0()
0()
1(0)
0()
0()
0()
0()
0()
0()
1(0)
0()
0()
0()
0()
0()
0()
2{0}
1(0)
1(0)
1(0)
1(0)
0()
0()
1(0)
1(0)
0()
1(0)
0()
1(0)
1(0)
1(0)
1(0)
1(0)
1(0)
0()
0()
0()
1(0)
1(0)
0()
0()
1(0)
1(0)
1(0)
1(0)
1(0)
1(0)
0()
1(0)
1(0)
1(0)
0()
1(0)
1(0)
0()
1(0)
1(0)
1(0)
1(0)
1(0)
0()
1(0)
1(0)
1(0)
1(0)
1(0)
1(0)
1(0)
0()
1(0)
1(0)
1(0)
1(0)
0()
1(0)
1(0)
1(0)
1(0)
0()
0()
0()
1(0)
0()
0()
0()
0()
0()
1(0)
2{0}
1(0)
1(0)
1(0)
1(0)
1(0)
1(0)
1(0)
1(0)
1(0)
1(0)
1(0)
1(0)
0()
1(0)
1(0)
1(0)
1(0)
0()
1(0)
0()
0()
1(0)
1(0)
1(0)
1(0)
1(0)
1(0)
1(0)
0()
1(0)
1(0)
1(0)
1(0)
1(0)
1(0)
1(0)
1(0)
0()
1(0)
1(0)
1(0)
1(0)
1(0)
1(0)
0()
1(0)
0()
1(0)
0()
0()
0()
1(0)
1(0)
1(0)
1(0)
1(0)
1(0)
0()
0()
0()
1(0)
1(0)
0()
0()
0()
0()
0()
0()
0()
2{0}
1(0)
1(0)
1(0)
1(0)
1(0)
1(0)
1(0)
1(0)
1(0)
1(0)
0()
1(0)
0()
1(0)
1(0)
1(0)
1(0)
1(0)
1(0)
0()
1(0)
0()
1(0)
1(0)
1(0)
1(0)
0()
0()
0()
1(0)
1(0)
0()
1(0)
1(0)
1(0)
1(0)
1(0)
0()
0()
1(0)
1(0)
1(0)
0()
1(0)
1(0)
1(0)
1(0)
1(0)
1(0)
1(0)
1(0)
1(0)
1(0)
0()
1(0)
1(0)
0()
1(0)
1(0)
0()
0()
0()
0()
0()
0()
0()
0()
0()
0()
0()
1(0)
1(0)
1(0)
1(0)
1(0)
0()
1(0)
1(0)
1(0)
1(0)
0()
1(0)
1(0)
1(0)
1(0)
1(0)
0()
1(0)
1(0)
1(0)
1(0)
0()
1(0)
0()
1(0)
1(0)
1(0)
1(0)
1(0)
1(0)
1(0)
1(0)
0()
1(0)
1(0)
1(0)
1(0)
1(0)
1(0)
1(0)
1(0)
1(0)
1(0)
1(0)
1(0)
1(0)
1(0)
0()
1(0)
1(0)
0()
1(0)
1(0)
1(0)
1(0)
1(0)
1(0)
1(0)
1(0)
1(0)
1(0)
1(0)
1(0)
0()
0()
0()
0()
0()
0()
0()
0()
2{0}
2{0}
1(0)
1(0)
0()
0()
1(0)
1(0)
1(0)
1(0)
0()
0()
1(0)
1(0)
0()
1(0)
1(0)
1(0)
0()
1(0)
1(0)
1(0)
1(0)
1(0)
1(0)
0()
1(0)
1(0)
1(0)
0()
1(0)
0()
1(0)
1(0)
0()
0()
1(0)
1(0)
1(0)
1(0)
0()
0()
1(0)
1(0)
1(0)
1(0)
0()
0()
0()
1(0)
1(0)
0()
1(0)
1(0)
1(0)
0()
1(0)
1(0)
1(0)
1(0)
0()
0()
1(0)
1(0)
1(0)
1(0)
0()
0()
0()
0()
0()
2{0}
1(0)
1(0)
1(0)
0()
1(0)
1(0)
1(0)
1(0)
1(0)
1(0)
1(0)
0()
1(0)
1(0)
1(0)
1(0)
1(0)
1(0)
1(0)
1(0)
1(0)
1(0)
1(0)
1(0)
1(0)
0()
1(0)
0()
1(0)
0()
1(0)
0()
1(0)
1(0)
1(0)
1(0)
1(0)
1(0)
1(0)
1(0)
1(0)
1(0)
0()
1(0)
1(0)
1(0)
1(0)
0()
1(0)
1(0)
1(0)
1(0)
1(0)
1(0)
0()
1(0)
1(0)
0()
0()
0()
0()
1(0)
1(0)
0()
1(0)
0()
0()
0()
0()
0()
1(0)
0()
1(0)
1(0)
1(0)
1(0)
1(0)
1(0)
1(0)
1(0)
1(0)
1(0)
1(0)
0()
1(0)
1(0)
1(0)
1(0)
1(0)
1(0)
0()
1(0)
1(0)
1(0)
1(0)
1(0)
1(0)
1(0)
1(0)
0()
0()
0()
0()
1(0)
1(0)
1(0)
1(0)
1(0)
1(0)
0()
1(0)
1(0)
1(0)
0()
1(0)
1(0)
1(0)
1(0)
1(0)
1(0)
0()
1(0)
1(0)
0()
1(0)
1(0)
1(0)
1(0)
0()
0()
1(0)
1(0)
1(0)
0()
0()
0()
0()
0()
0()
0()
0()
2{0}
1(0)
1(0)
1(0)
1(0)
1(0)
1(0)
1(0)
0()
1(0)
1(0)
1(0)
0()
1(0)
1(0)
1(0)
0()
1(0)
1(0)
1(0)
1(0)
1(0)
1(0)
1(0)
1(0)
0()
1(0)
1(0)
1(0)
1(0)
1(0)
1(0)
0()
1(0)
1(0)
0()
1(0)
1(0)
1(0)
1(0)
1(0)
1(0)
1(0)
1(0)
1(0)
0()
1(0)
0()
0()
1(0)
0()
0()
0()
0()
1(0)
1(0)
1(0)
0()
1(0)
1(0)
0()
1(0)
1(0)
0()
0()
0()
0()
0()
0()
0()
2{0}
0()
1(0)
1(0)
1(0)
1(0)
1(0)
1(0)
1(0)
0()
1(0)
1(0)
0()
1(0)
1(0)
1(0)
1(0)
1(0)
1(0)
1(0)
1(0)
1(0)
0()
1(0)
1(0)
1(0)
0()
1(0)
0()
1(0)
0()
0()
1(0)
1(0)
0()
1(0)
1(0)
1(0)
1(0)
1(0)
1(0)
1(0)
1(0)
1(0)
1(0)
1(0)
1(0)
1(0)
1(0)
1(0)
1(0)
1(0)
1(0)
1(0)
0()
0()
0()
0()
0()
1(0)
1(0)
1(0)
0()
0()
0()
0()
0()
0()
0()
1(0)
1(0)
1(0)
1(0)
1(0)
0()
1(0)
1(0)
1(0)
1(0)
1(0)
0()
1(0)
1(0)
0()
1(0)
0()
0()
1(0)
1(0)
1(0)
0()
0()
1(0)
0()
0()
0()
0()
1(0)
0()
1(0)
0()
1(0)
1(0)
1(0)
0()
1(0)
1(0)
0()
1(0)
1(0)
1(0)
1(0)
1(0)
1(0)
1(0)
0()
0()
1(0)
0()
0()
0()
0()
0()
0()
1(0)
1(0)
1(0)
1(0)
1(0)
1(0)
1(0)
1(0)
0()
1(0)
1(0)
1(0)
1(0)
0()
0()
0()
0()
1(0)
1(0)
1(0)
2{0}
1(0)
0()
1(0)
1(0)
1(0)
1(0)
2{0}
1(0)
1(0)
1(0)
0()
1(0)
1(0)
1(0)
1(0)
1(0)
1(0)
1(0)
1(0)
1(0)
1(0)
1(0)
1(0)
0()
1(0)
1(0)
0()
0()
1(0)
1(0)
1(0)
1(0)
1(0)
1(0)
1(0)
1(0)
1(0)
0()
1(0)
1(0)
0()
1(0)
1(0)
1(0)
1(0)
1(0)
1(0)
1(0)
1(0)
1(0)
1(0)
1(0)
1(0)
1(0)
0()
1(0)
1(0)
1(0)
1(0)
1(0)
0()
1(0)
1(0)
1(0)
0()
1(0)
1(0)
0()
1(0)
1(0)
1(0)
1(0)
1(0)
1(0)
0()
1(0)
0()
1(0)
1(0)
1(0)
1(0)
1(0)
1(0)
1(0)
1(0)
1(0)
1(0)
1(0)
1(0)
1(0)
1(0)
0()
1(0)
1(0)
1(0)
1(0)
1(0)
1(0)
1(0)
0()
1(0)
0()
1(0)
1(0)
1(0)
1(0)
0()
1(0)
1(0)
1(0)
0()
1(0)
1(0)
1(0)
1(0)
1(0)
1(0)
0()
1(0)
1(0)
1(0)
0()
1(0)
1(0)
1(0)
0()
1(0)
1(0)
0()
1(0)
1(0)
1(0)
1(0)
1(0)
1(0)
1(0)
0()
1(0)
1(0)
1(0)
1(0)
1(0)
1(0)
1(0)
0()
1(0)
1(0)
0()
1(0)
0()
0()
0()
0()
0()
0()
0()
0()
0()
0()
1(0)
0()
0()
1(0)
1(0)
0()
1(0)
0()
1(0)
0()
1(0)
1(0)
0()
1(0)
1(0)
0()
1(0)
1(0)
1(0)
1(0)
1(0)
1(0)
1(0)
1(0)
1(0)
0()
1(0)
0()
1(0)
1(0)
0()
1(0)
1(0)
1(0)
1(0)
1(0)
1(0)
1(0)
1(0)
1(0)
1(0)
0()
0()
1(0)
0()
1(0)
1(0)
0()
1(0)
0()
1(0)
1(0)
1(0)
1(0)
0()
1(0)
1(0)
0()
1(0)
1(0)
1(0)
1(0)
1(0)
0()
0()
0()
0()
0()
0()
0()
0()
2{0}
1(0)
1(0)
1(0)
1(0)
0()
1(0)
1(0)
1(0)
1(0)
0()
1(0)
1(0)
1(0)
1(0)
1(0)
0()
1(0)
1(0)
0()
1(0)
1(0)
0()
1(0)
1(0)
1(0)
1(0)
0()
0()
1(0)
1(0)
1(0)
1(0)
1(0)
1(0)
0()
1(0)
0()
1(0)
1(0)
1(0)
1(0)
1(0)
0()
1(0)
1(0)
0()
1(0)
1(0)
1(0)
0()
1(0)
0()
0()
0()
1(0)
0()
1(0)
1(0)
0()
0()
0()
0()
0()
0()
0()
0()
0()
0()
0()
0()
2{0}
1(0)
1(0)
1(0)
1(0)
1(0)
1(0)
1(0)
1(0)
1(0)
1(0)
1(0)
0()
1(0)
1(0)
1(0)
1(0)
1(0)
1(0)
0()
1(0)
1(0)
1(0)
0()
1(0)
1(0)
1(0)
1(0)
1(0)
1(0)
1(0)
1(0)
0()
0()
1(0)
1(0)
1(0)
1(0)
0()
1(0)
0()
1(0)
1(0)
1(0)
1(0)
0()
1(0)
1(0)
1(0)
1(0)
1(0)
1(0)
0()
1(0)
1(0)
1(0)
0()
0()
0()
0()
0()
0()
0()
1(0)
0()
1(0)
0()
0()
0()
0()
0()
1(0)
0()
1(0)
1(0)
1(0)
0()
1(0)
1(0)
1(0)
1(0)
1(0)
0()
1(0)
1(0)
1(0)
0()
1(0)
1(0)
1(0)
0()
1(0)
1(0)
1(0)
1(0)
1(0)
1(0)
0()
1(0)
1(0)
1(0)
1(0)
1(0)
1(0)
1(0)
1(0)
0()
1(0)
0()
1(0)
1(0)
1(0)
1(0)
0()
1(0)
0()
1(0)
1(0)
1(0)
1(0)
1(0)
1(0)
1(0)
1(0)
1(0)
1(0)
1(0)
1(0)
1(0)
1(0)
0()
1(0)
0()
1(0)
0()
0()
0()
0()
0()
0()
0()
0()
1(0)
0()
1(0)
1(0)
1(0)
0()
1(0)
1(0)
0()
1(0)
0()
1(0)
1(0)
1(0)
1(0)
0()
1(0)
1(0)
1(0)
0()
1(0)
1(0)
1(0)
1(0)
1(0)
1(0)
0()
1(0)
1(0)
0()
0()
0()
1(0)
1(0)
1(0)
1(0)
0()
1(0)
1(0)
1(0)
1(0)
1(0)
1(0)
1(0)
1(0)
1(0)
0()
1(0)
1(0)
1(0)
0()
1(0)
1(0)
1(0)
1(0)
1(0)
1(0)
1(0)
0()
0()
0()
1(0)
0()
1(0)
0()
1(0)
0()
0()
0()
0()
0()
1(0)
1(0)
0()
1(0)
1(0)
1(0)
1(0)
1(0)
1(0)
1(0)
1(0)
1(0)
0()
1(0)
1(0)
1(0)
1(0)
1(0)
1(0)
1(0)
0()
1(0)
1(0)
1(0)
1(0)
1(0)
0()
1(0)
1(0)
0()
0()
1(0)
1(0)
1(0)
1(0)
1(0)
1(0)
0()
1(0)
1(0)
1(0)
1(0)
1(0)
1(0)
1(0)
1(0)
0()
1(0)
1(0)
1(0)
1(0)
0()
0()
0()
1(0)
1(0)
0()
1(0)
0()
0()
0()
1(0)
1(0)
1(0)
0()
1(0)
1(0)
0()
0()
0()
0()
2{0}
1(0)
1(0)
1(0)
1(0)
1(0)
1(0)
1(0)
1(0)
1(0)
1(0)
1(0)
1(0)
0()
1(0)
1(0)
1(0)
1(0)
1(0)
1(0)
1(0)
1(0)
1(0)
1(0)
0()
1(0)
1(0)
1(0)
1(0)
1(0)
1(0)
1(0)
1(0)
0()
1(0)
1(0)
0()
0()
1(0)
0()
0()
0()
1(0)
1(0)
1(0)
1(0)
0()
1(0)
1(0)
1(0)
1(0)
1(0)
1(0)
0()
0()
1(0)
1(0)
1(0)
1(0)
1(0)
0()
1(0)
0()
1(0)
1(0)
0()
0()
1(0)
0()
0()
0()
1(0)
1(0)
1(0)
1(0)
1(0)
1(0)
1(0)
0()
1(0)
1(0)
1(0)
1(0)
1(0)
1(0)
1(0)
1(0)
1(0)
0()
1(0)
1(0)
1(0)
1(0)
1(0)
1(0)
1(0)
1(0)
1(0)
0()
1(0)
1(0)
1(0)
1(0)
1(0)
1(0)
1(0)
1(0)
1(0)
1(0)
1(0)
1(0)
1(0)
1(0)
1(0)
1(0)
1(0)
1(0)
1(0)
1(0)
1(0)
1(0)
0()
1(0)
1(0)
0()
0()
1(0)
1(0)
1(0)
0()
1(0)
0()
1(0)
1(0)
1(0)
0()
1(0)
1(0)
1(0)
1(0)
0()
0()
0()
1(0)
1(0)
1(0)
1(0)
0()
1(0)
1(0)
1(0)
0()
1(0)
1(0)
0()
1(0)
1(0)
1(0)
0()
1(0)
1(0)
0()
1(0)
1(0)
0()
1(0)
1(0)
1(0)
1(0)
0()
1(0)
0()
1(0)
1(0)
1(0)
1(0)
1(0)
0()
1(0)
0()
1(0)
0()
1(0)
0()
1(0)
1(0)
0()
1(0)
1(0)
1(0)
1(0)
0()
0()
0()
0()
0()
0()
1(0)
0()
1(0)
1(0)
1(0)
1(0)
1(0)
1(0)
2{0}
1(0)
0()
1(0)
0()
1(0)
0()
1(0)
1(0)
1(0)
1(0)
1(0)
1(0)
1(0)
0()
1(0)
1(0)
1(0)
1(0)
1(0)
0()
0()
0()
1(0)
0()
0()
1(0)
1(0)
0()
1(0)
1(0)
1(0)
1(0)
1(0)
1(0)
1(0)
1(0)
1(0)
0()
1(0)
1(0)
1(0)
1(0)
1(0)
1(0)
1(0)
0()
1(0)
0()
0()
0()
0()
0()
1(0)
0()
1(0)
1(0)
1(0)
0()
0()
1(0)
1(0)
1(0)
1(0)
1(0)
1(0)
1(0)
1(0)
0()
0()
1(0)
1(0)
1(0)
1(0)
1(0)
1(0)
1(0)
0()
0()
1(0)
1(0)
1(0)
1(0)
0()
1(0)
1(0)
1(0)
1(0)
1(0)
1(0)
0()
0()
1(0)
1(0)
1(0)
1(0)
1(0)
1(0)
0()
1(0)
0()
0()
0()
1(0)
1(0)
1(0)
1(0)
1(0)
1(0)
0()
0()
0()
0()
0()
0()
0()
1(0)
1(0)
1(0)
1(0)
1(0)
0()
1(0)
1(0)
0()
0()
1(0)
0()
1(0)
1(0)
1(0)
1(0)
1(0)
1(0)
1(0)
1(0)
1(0)
1(0)
1(0)
1(0)
1(0)
1(0)
1(0)
1(0)
0()
1(0)
1(0)
1(0)
0()
1(0)
1(0)
1(0)
0()
1(0)
1(0)
1(0)
1(0)
1(0)
1(0)
1(0)
0()
1(0)
1(0)
1(0)
0()
1(0)
1(0)
1(0)
1(0)
1(0)
0()
0()
1(0)
0()
1(0)
1(0)
1(0)
0()
1(0)
0()
0()
0()
0()
0()
0()
0()
0()
2{0}
0()
1(0)
0()
0()
1(0)
1(0)
1(0)
1(0)
1(0)
1(0)
0()
1(0)
1(0)
1(0)
0()
1(0)
0()
1(0)
1(0)
1(0)
1(0)
1(0)
1(0)
0()
1(0)
1(0)
1(0)
1(0)
1(0)
1(0)
1(0)
1(0)
0()
1(0)
1(0)
1(0)
1(0)
1(0)
1(0)
1(0)
1(0)
0()
0()
0()
1(0)
1(0)
1(0)
1(0)
1(0)
1(0)
1(0)
1(0)
0()
1(0)
1(0)
0()
1(0)
0()
0()
1(0)
0()
1(0)
1(0)
0()
1(0)
0()
0()
0()
0()
0()
1(0)
1(0)
1(0)
0()
1(0)
1(0)
1(0)
1(0)
1(0)
0()
0()
1(0)
1(0)
0()
1(0)
0()
1(0)
1(0)
1(0)
1(0)
1(0)
0()
1(0)
1(0)
1(0)
1(0)
1(0)
1(0)
0()
1(0)
1(0)
1(0)
1(0)
0()
1(0)
1(0)
1(0)
1(0)
1(0)
0()
1(0)
0()
0()
1(0)
0()
1(0)
1(0)
0()
1(0)
0()
0()
0()
0()
1(0)
1(0)
1(0)
1(0)
1(0)
1(0)
1(0)
1(0)
0()
1(0)
0()
1(0)
1(0)
0()
0()
0()
0()
0()
1(0)
1(0)
1(0)
1(0)
1(0)
1(0)
1(0)
1(0)
1(0)
0()
1(0)
1(0)
0()
0()
1(0)
1(0)
0()
1(0)
1(0)
1(0)
1(0)
1(0)
0()
0()
0()
1(0)
1(0)
1(0)
1(0)
1(0)
1(0)
1(0)
1(0)
1(0)
0()
1(0)
1(0)
0()
1(0)
0()
1(0)
1(0)
0()
0()
1(0)
1(0)
1(0)
1(0)
1(0)
1(0)
1(0)
0()
1(0)
1(0)
1(0)
1(0)
0()
1(0)
0()
1(0)
1(0)
0()
0()
1(0)
0()
0()
1(0)
0()
0()
0()
0()
1(0)
1(0)
1(0)
1(0)
1(0)
1(0)
1(0)
1(0)
1(0)
1(0)
1(0)
1(0)
1(0)
0()
0()
1(0)
1(0)
1(0)
1(0)
1(0)
1(0)
1(0)
0()
1(0)
0()
0()
1(0)
1(0)
0()
1(0)
1(0)
1(0)
1(0)
1(0)
1(0)
0()
1(0)
1(0)
1(0)
1(0)
0()
1(0)
1(0)
1(0)
0()
1(0)
1(0)
1(0)
1(0)
1(0)
1(0)
1(0)
0()
0()
1(0)
0()
1(0)
0()
1(0)
1(0)
1(0)
0()
0()
1(0)
0()
0()
0()
0()
0()
0()
0()
0()
1(0)
0()
0()
0()
1(0)
0()
1(0)
1(0)
1(0)
1(0)
1(0)
1(0)
1(0)
1(0)
1(0)
1(0)
1(0)
1(0)
1(0)
1(0)
1(0)
1(0)
1(0)
1(0)
1(0)
1(0)
1(0)
1(0)
1(0)
0()
1(0)
1(0)
1(0)
0()
1(0)
0()
1(0)
1(0)
1(0)
1(0)
1(0)
1(0)
0()
0()
1(0)
1(0)
1(0)
1(0)
1(0)
1(0)
0()
1(0)
1(0)
1(0)
1(0)
1(0)
1(0)
0()
0()
1(0)
1(0)
0()
1(0)
1(0)
0()
1(0)
1(0)
0()
0()
0()
0()
0()
1(0)
0()
1(0)
1(0)
1(0)
1(0)
1(0)
1(0)
0()
1(0)
1(0)
0()
1(0)
1(0)
1(0)
1(0)
1(0)
1(0)
0()
1(0)
1(0)
0()
0()
0()
1(0)
1(0)
1(0)
1(0)
1(0)
1(0)
1(0)
1(0)
1(0)
1(0)
0()
0()
1(0)
1(0)
1(0)
1(0)
1(0)
1(0)
0()
0()
1(0)
1(0)
1(0)
1(0)
1(0)
1(0)
1(0)
1(0)
1(0)
1(0)
1(0)
0()
0()
0()
0()
1(0)
0()
1(0)
0()
0()
1(0)
0()
0()
0()
0()
1(0)
1(0)
1(0)
1(0)
0()
1(0)
1(0)
1(0)
1(0)
0()
1(0)
1(0)
1(0)
1(0)
1(0)
0()
1(0)
1(0)
1(0)
1(0)
1(0)
1(0)
1(0)
1(0)
1(0)
1(0)
1(0)
1(0)
0()
0()
0()
1(0)
1(0)
1(0)
0()
1(0)
1(0)
1(0)
1(0)
1(0)
1(0)
1(0)
1(0)
1(0)
1(0)
1(0)
1(0)
0()
1(0)
0()
1(0)
1(0)
1(0)
1(0)
0()
0()
1(0)
1(0)
1(0)
1(0)
1(0)
1(0)
1(0)
1(0)
0()
1(0)
0()
0()
0()
0()
1(0)
1(0)
0()
1(0)
1(0)
1(0)
0()
1(0)
1(0)
1(0)
1(0)
0()
1(0)
1(0)
1(0)
1(0)
1(0)
0()
1(0)
1(0)
0()
1(0)
1(0)
0()
1(0)
0()
1(0)
1(0)
1(0)
1(0)
1(0)
1(0)
1(0)
1(0)
1(0)
1(0)
1(0)
1(0)
1(0)
1(0)
0()
1(0)
1(0)
1(0)
0()
1(0)
0()
1(0)
1(0)
1(0)
0()
1(0)
0()
0()
0()
1(0)
1(0)
1(0)
1(0)
1(0)
1(0)
0()
1(0)
1(0)
1(0)
1(0)
1(0)
0()
1(0)
0()
0()
0()
0()
0()
1(0)
0()
1(0)
0()
0()
0()
0()
1(0)
0()
0()
0()
0()
0()
1(0)
1(0)
1(0)
0()
1(0)
1(0)
0()
0()
0()
1(0)
1(0)
1(0)
0()
1(0)
1(0)
1(0)
2{0}
0()
0()
0()
1(0)
1(0)
1(0)
1(0)
1(0)
1(0)
1(0)
1(0)
1(0)
1(0)
1(0)
1(0)
1(0)
0()
0()
0()
2{0}
0()
0()
1(0)
1(0)
1(0)
0()
1(0)
0()
1(0)
1(0)
1(0)
1(0)
0()
0()
1(0)
1(0)
1(0)
0()
1(0)
1(0)
1(0)
1(0)
1(0)
1(0)
1(0)
1(0)
1(0)
1(0)
1(0)
0()
1(0)
1(0)
1(0)
1(0)
1(0)
0()
1(0)
1(0)
1(0)
0()
1(0)
1(0)
1(0)
1(0)
1(0)
0()
0()
0()
1(0)
0()
0()
1(0)
1(0)
0()
1(0)
1(0)
1(0)
1(0)
1(0)
1(0)
1(0)
1(0)
0()
1(0)
1(0)
1(0)
1(0)
1(0)
1(0)
0()
1(0)
1(0)
1(0)
1(0)
1(0)
1(0)
1(0)
0()
0()
0()
1(0)
1(0)
0()
1(0)
1(0)
1(0)
1(0)
1(0)
1(0)
1(0)
1(0)
1(0)
0()
1(0)
1(0)
1(0)
1(0)
1(0)
1(0)
1(0)
0()
1(0)
1(0)
1(0)
1(0)
1(0)
0()
0()
1(0)
1(0)
1(0)
0()
1(0)
1(0)
0()
1(0)
1(0)
1(0)
1(0)
0()
0()
0()
0()
0()
0()
0()
0()
1(0)
1(0)
0()
0()
0()
1(0)
1(0)
1(0)
1(0)
0()
0()
1(0)
1(0)
1(0)
0()
1(0)
1(0)
1(0)
1(0)
1(0)
1(0)
1(0)
1(0)
1(0)
0()
1(0)
1(0)
1(0)
1(0)
1(0)
1(0)
1(0)
1(0)
1(0)
1(0)
1(0)
0()
0()
1(0)
0()
1(0)
1(0)
1(0)
1(0)
1(0)
1(0)
1(0)
1(0)
0()
0()
0()
1(0)
1(0)
1(0)
1(0)
1(0)
0()
0()
1(0)
0()
0()
0()
0()
0()
0()
0()
0()
1(0)
1(0)
1(0)
1(0)
1(0)
1(0)
1(0)
1(0)
0()
0()
1(0)
1(0)
1(0)
1(0)
1(0)
1(0)
1(0)
1(0)
1(0)
1(0)
0()
1(0)
1(0)
1(0)
0()
1(0)
1(0)
0()
0()
1(0)
1(0)
1(0)
1(0)
1(0)
1(0)
1(0)
1(0)
1(0)
1(0)
1(0)
1(0)
1(0)
1(0)
1(0)
1(0)
1(0)
1(0)
1(0)
0()
0()
0()
0()
1(0)
1(0)
0()
0()
1(0)
1(0)
1(0)
0()
0()
0()
1(0)
1(0)
0()
0()
0()
0()
0()
2{0}
1(0)
1(0)
1(0)
1(0)
1(0)
1(0)
1(0)
1(0)
1(0)
1(0)
1(0)
1(0)
1(0)
1(0)
1(0)
0()
1(0)
0()
0()
0()
1(0)
1(0)
1(0)
1(0)
0()
1(0)
0()
1(0)
1(0)
1(0)
0()
1(0)
0()
1(0)
1(0)
1(0)
0()
1(0)
1(0)
1(0)
1(0)
1(0)
1(0)
1(0)
1(0)
1(0)
1(0)
0()
0()
1(0)
1(0)
1(0)
1(0)
0()
0()
0()
0()
0()
1(0)
1(0)
1(0)
1(0)
0()
0()
1(0)
0()
0()
0()
0()
0()
2{0}
1(0)
0()
1(0)
1(0)
1(0)
1(0)
1(0)
1(0)
1(0)
1(0)
1(0)
1(0)
0()
1(0)
1(0)
1(0)
1(0)
1(0)
1(0)
1(0)
1(0)
1(0)
0()
1(0)
1(0)
1(0)
1(0)
1(0)
1(0)
1(0)
1(0)
1(0)
1(0)
0()
1(0)
1(0)
0()
0()
0()
1(0)
0()
0()
0()
1(0)
1(0)
0()
0()
1(0)
1(0)
1(0)
0()
1(0)
0()
1(0)
1(0)
0()
0()
0()
0()
1(0)
1(0)
1(0)
1(0)
1(0)
1(0)
0()
1(0)
1(0)
0()
0()
1(0)
1(0)
1(0)
1(0)
1(0)
1(0)
1(0)
0()
1(0)
0()
1(0)
1(0)
1(0)
1(0)
1(0)
1(0)
1(0)
1(0)
1(0)
1(0)
1(0)
1(0)
1(0)
1(0)
1(0)
1(0)
1(0)
1(0)
1(0)
0()
1(0)
0()
1(0)
1(0)
1(0)
1(0)
1(0)
1(0)
1(0)
1(0)
1(0)
1(0)
1(0)
1(0)
1(0)
0()
0()
1(0)
1(0)
1(0)
1(0)
1(0)
1(0)
1(0)
1(0)
1(0)
1(0)
0()
1(0)
1(0)
1(0)
1(0)
1(0)
0()
1(0)
0()
0()
0()
1(0)
0()
0()
2{0}
2{0}
1(0)
1(0)
0()
1(0)
0()
1(0)
1(0)
1(0)
1(0)
0()
1(0)
1(0)
1(0)
0()
1(0)
1(0)
1(0)
0()
0()
1(0)
0()
1(0)
1(0)
1(0)
0()
1(0)
1(0)
1(0)
0()
1(0)
1(0)
1(0)
1(0)
1(0)
1(0)
1(0)
1(0)
1(0)
0()
1(0)
1(0)
1(0)
1(0)
0()
1(0)
0()
1(0)
1(0)
1(0)
0()
1(0)
0()
1(0)
1(0)
1(0)
1(0)
1(0)
1(0)
0()
0()
0()
1(0)
0()
1(0)
0()
0()
1(0)
0()
0()
2{0}
1(0)
0()
1(0)
1(0)
1(0)
1(0)
1(0)
1(0)
0()
1(0)
0()
1(0)
1(0)
1(0)
1(0)
1(0)
0()
1(0)
0()
1(0)
1(0)
1(0)
1(0)
1(0)
1(0)
1(0)
1(0)
1(0)
1(0)
1(0)
1(0)
1(0)
1(0)
1(0)
1(0)
1(0)
1(0)
1(0)
0()
1(0)
1(0)
1(0)
1(0)
1(0)
1(0)
1(0)
1(0)
1(0)
0()
0()
0()
1(0)
0()
0()
1(0)
1(0)
1(0)
1(0)
1(0)
1(0)
0()
0()
1(0)
1(0)
0()
1(0)
0()
0()
0()
0()
1(0)
1(0)
1(0)
1(0)
1(0)
0()
1(0)
1(0)
1(0)
0()
1(0)
1(0)
1(0)
1(0)
0()
1(0)
1(0)
1(0)
1(0)
1(0)
1(0)
1(0)
1(0)
0()
1(0)
1(0)
1(0)
1(0)
0()
1(0)
1(0)
0()
0()
1(0)
1(0)
1(0)
1(0)
1(0)
1(0)
1(0)
0()
1(0)
1(0)
1(0)
1(0)
1(0)
1(0)
1(0)
1(0)
1(0)
1(0)
1(0)
0()
1(0)
1(0)
0()
1(0)
0()
0()
0()
1(0)
0()
0()
1(0)
0()
0()
0()
0()
0()
0()
0()
2{0}
1(0)
0()
1(0)
0()
1(0)
1(0)
1(0)
1(0)
0()
1(0)
0()
1(0)
1(0)
0()
1(0)
1(0)
1(0)
1(0)
1(0)
0()
1(0)
1(0)
1(0)
1(0)
1(0)
1(0)
1(0)
1(0)
1(0)
1(0)
1(0)
1(0)
1(0)
0()
0()
0()
1(0)
0()
1(0)
1(0)
1(0)
1(0)
1(0)
1(0)
0()
1(0)
0()
1(0)
1(0)
1(0)
1(0)
0()
1(0)
1(0)
1(0)
0()
0()
1(0)
1(0)
1(0)
0()
0()
0()
0()
0()
0()
0()
0()
1(0)
0()
2{0}
1(0)
1(0)
1(0)
1(0)
1(0)
1(0)
1(0)
1(0)
0()
2{0}
2{0}
1(0)
1(0)
2{0}
1(0)
0()
1(0)
2{0}
1(0)
1(0)
1(0)
0()
1(0)
2{0}
1(0)
1(0)
2{0}
2{0}
2{0}
1(0)
2{0}
1(0)
1(0)
2{0}
2{0}
1(0)
2{0}
2{0}
0()
1(0)
1(0)
1(0)
1(0)
1(0)
1(0)
2{0}
2{0}
0()
0()
2{0}
2{0}
1(0)
0()
1(0)
2{0}
1(0)
1(0)
2{0}
1(0)
1(0)
1(0)
1(0)
0()
1(0)
0()
1(0)
1(0)
0()
0()
0()
0()
0()
1(0)
1(0)
1(0)
1(0)
1(0)
0()
1(0)
0()
1(0)
0()
2{0}
1(0)
1(0)
1(0)
1(0)
1(0)
2{0}
1(0)
1(0)
1(0)
1(0)
1(0)
1(0)
1(0)
1(0)
0()
1(0)
0()
0()
1(0)
1(0)
1(0)
1(0)
0()
1(0)
0()
0()
1(0)
0()
1(0)
1(0)
1(0)
1(0)
0()
0()
1(0)
0()
0()
0()
0()
0()
0()
1(0)
)


// ************************************************************************* //
