/*--------------------------------*- C++ -*----------------------------------*\
  =========                 |
  \\      /  F ield         | OpenFOAM: The Open Source CFD Toolbox
   \\    /   O peration     | Website:  https://openfoam.org
    \\  /    A nd           | Version:  10
     \\/     M anipulation  |
\*---------------------------------------------------------------------------*/
FoamFile
{
    format      ascii;
    class       vectorFieldField;
    location    "0/lagrangian/cloud";
    object      collisionRecordsWallData;
}
// * * * * * * * * * * * * * * * * * * * * * * * * * * * * * * * * * * * * * //


3300
(
2((2.71302e-25 3.5166e-08 1.60529e-09) (0 0 0))
2((1.8683e-23 1.80555e-07 -2.65472e-08) (-7.71034e-10 7.25039e-10 -6.50694e-26))
2((1.306e-24 4.94209e-08 6.6323e-09) (-5.70926e-11 -3.05631e-09 2.85513e-24))
0()
1((-3.49874e-24 -1.68269e-07 -5.73996e-09))
1((3.9655e-09 -2.78172e-10 -3.03957e-25))
2((2.76699e-09 -1.07003e-09 -3.28899e-26) (-3.01339e-25 2.43938e-08 -8.77441e-09))
2((-3.60287e-22 -1.57044e-07 -1.69885e-08) (6.7131e-09 -3.18541e-09 3.32921e-24))
2((6.61719e-24 -2.63097e-07 -1.0192e-08) (2.15177e-09 2.25223e-09 2.63414e-24))
1((-7.94726e-09 1.89044e-09 -3.05166e-25))
1((-1.87851e-10 3.42776e-09 2.78916e-26))
2((-1.96516e-25 1.08972e-08 -6.98874e-10) (-1.4897e-10 1.96209e-10 -3.99583e-26))
1((9.33259e-24 -2.59352e-07 8.51232e-10))
2((-2.00756e-24 5.63895e-09 4.24874e-10) (-2.49777e-11 1.78715e-09 1.1316e-27))
0()
1((-4.08477e-09 -2.12481e-09 0))
0()
2((-2.98271e-23 -8.23694e-08 6.3262e-09) (8.04125e-11 1.79307e-09 2.02726e-26))
0()
2((-9.6044e-25 -2.45922e-09 3.85154e-10) (5.51557e-10 -3.62025e-10 3.64535e-26))
1((1.36715e-09 -1.85479e-09 -2.75513e-25))
1((-5.02667e-09 -1.99896e-09 7.32163e-25))
2((3.11875e-25 -9.52525e-08 6.72653e-09) (1.15848e-09 -2.86727e-09 -4.95197e-26))
1((-1.25122e-09 6.5899e-10 0))
1((-9.81679e-25 1.27072e-07 1.26913e-09))
1((0 0 0))
1((-3.11145e-09 -3.57972e-09 5.58608e-25))
2((1.09845e-23 -1.01332e-08 6.75045e-09) (0 0 0))
0()
1((0 0 0))
1((1.35038e-24 4.82962e-08 4.64749e-10))
1((2.63075e-24 -3.29829e-08 -9.22505e-11))
0()
1((3.24606e-26 -3.24055e-09 -8.91504e-10))
1((-3.05943e-08 1.76637e-08 1.03969e-10))
2((-2.10723e-08 1.21661e-08 3.33224e-09) (-2.22976e-08 1.35799e-09 1.79281e-25))
2((4.16519e-23 1.02787e-07 9.85032e-09) (-3.07026e-10 6.24582e-09 6.58448e-26))
2((7.38112e-24 7.23197e-09 -2.87093e-08) (0 0 0))
1((3.40291e-09 -7.36815e-09 -6.19351e-25))
1((-2.89721e-09 -2.47849e-09 1.94116e-24))
2((-3.43474e-25 -2.02346e-07 -5.74505e-10) (-3.96669e-09 -1.08783e-08 1.19054e-24))
1((0 0 0))
1((-8.86805e-09 -1.59991e-09 -2.79936e-24))
1((-1.18286e-23 -1.63835e-07 -4.07319e-09))
1((2.79907e-08 3.25449e-10 1.55449e-24))
1((4.70181e-09 1.39644e-08 1.07231e-24))
2((5.65938e-24 4.71919e-07 2.44384e-08) (0 0 0))
1((4.89125e-09 1.1112e-09 -3.37559e-25))
2((8.93248e-24 3.2606e-08 -3.28747e-08) (1.18546e-08 1.19909e-09 3.13041e-26))
1((-2.97794e-24 -2.39413e-07 1.41374e-08))
1((1.20643e-08 6.57318e-09 -1.3667e-24))
2((-3.38848e-24 -3.27361e-07 -9.30574e-09) (3.03909e-09 5.1539e-09 -2.54656e-25))
2((1.94615e-25 -2.04236e-07 7.97661e-09) (6.06984e-09 6.02316e-09 2.32573e-24))
1((6.58341e-09 -3.57733e-10 -1.73009e-24))
1((5.64986e-09 -9.36965e-09 0))
2((-2.17837e-24 7.23478e-08 5.78655e-09) (-1.18269e-09 1.75263e-09 6.90577e-25))
0()
2((3.89104e-24 1.45901e-07 8.08497e-09) (7.19281e-10 1.13713e-08 1.54004e-23))
2((9.01804e-10 7.77144e-09 3.8878e-24) (-2.95721e-25 -6.90539e-08 4.94727e-09))
1((1.06375e-23 -9.7828e-08 4.80615e-09))
1((3.9572e-09 8.52892e-10 -1.55789e-25))
2((3.32604e-24 -1.3249e-07 1.50763e-08) (1.95596e-10 4.67554e-11 2.54975e-26))
2((-2.60675e-25 -2.57566e-07 -1.13325e-08) (3.34126e-10 2.82378e-09 -2.88759e-26))
1((-9.9061e-09 1.68036e-09 -4.42798e-26))
1((3.31973e-24 1.37779e-07 7.51119e-09))
1((5.54777e-10 -7.14996e-09 -1.01473e-25))
1((-1.00425e-09 -1.07803e-08 1.67406e-24))
1((1.21516e-08 -4.77693e-09 -1.85283e-25))
1((3.87896e-10 -1.23046e-08 2.42117e-25))
1((-1.07955e-08 3.11719e-09 0))
1((-3.42777e-09 7.95582e-09 0))
1((2.73918e-09 8.54715e-10 0))
0()
0()
0()
1((-2.75562e-09 9.03429e-09 1.46702e-23))
0()
0()
1((1.972e-09 1.15175e-08 2.12171e-26))
1((-8.08616e-09 -3.50329e-09 2.86511e-25))
1((-1.65108e-09 -6.10465e-10 0))
0()
1((-4.42749e-09 -9.04143e-10 6.60062e-25))
1((3.9467e-09 3.75662e-09 3.71934e-25))
1((6.10275e-09 -4.62551e-10 0))
1((0 0 0))
1((4.64544e-10 5.59609e-10 0))
1((-5.61848e-09 -3.39515e-09 0))
0()
0()
0()
1((-4.79036e-09 -8.89262e-10 0))
0()
0()
0()
0()
0()
0()
1((-3.69199e-24 2.91035e-09 5.88302e-09))
0()
0()
0()
0()
0()
0()
2((-3.24476e-07 1.87337e-07 -1.70483e-08) (-2.64107e-09 -3.65759e-10 -5.91409e-25))
1((-1.20957e-09 -3.84574e-10 2.77267e-24))
1((1.11908e-08 -6.08029e-09 0))
1((-1.17806e-08 1.31535e-08 2.42736e-24))
1((0 0 0))
0()
0()
1((0 0 0))
1((7.28592e-10 7.2703e-10 0))
0()
1((0 0 0))
0()
1((-1.21885e-08 4.84359e-09 -1.59893e-24))
1((-2.9677e-09 1.7746e-09 -1.22931e-24))
1((1.7524e-08 -2.64614e-08 0))
1((2.08999e-08 -1.5629e-08 1.48885e-24))
1((-1.44437e-08 -2.04813e-08 -1.24554e-24))
1((-4.87419e-09 -9.45784e-09 -2.69077e-24))
0()
0()
0()
1((3.49328e-09 6.33982e-09 0))
1((-8.20724e-09 -1.14077e-09 7.81804e-25))
0()
0()
1((0 0 0))
1((6.15079e-09 5.69731e-09 3.99452e-25))
1((1.3167e-09 8.0036e-09 0))
1((1.26201e-09 4.9784e-09 -1.96168e-25))
1((6.25202e-09 2.38558e-10 -2.95985e-25))
1((0 0 0))
0()
1((1.1697e-08 1.96327e-09 8.76884e-25))
1((1.73685e-08 1.61143e-08 -7.52175e-24))
1((-4.44498e-09 5.31556e-09 0))
0()
1((-2.07931e-09 7.67474e-09 0))
1((0 0 0))
0()
1((0 0 0))
1((1.0338e-08 -1.06575e-08 0))
1((0 0 0))
1((6.04544e-09 -8.29518e-09 0))
1((5.25313e-09 -1.07877e-08 5.47716e-25))
0()
1((1.24519e-08 7.89667e-09 -2.3518e-24))
1((2.67191e-09 -1.21682e-08 6.47642e-25))
1((-1.36652e-09 -2.14594e-08 1.00917e-25))
1((-4.36371e-09 -4.21445e-09 0))
1((-1.17582e-09 6.28726e-09 -5.44715e-25))
1((-7.99881e-09 7.89958e-11 5.40378e-25))
1((3.74911e-09 1.67111e-09 0))
0()
1((2.47379e-09 2.30809e-09 5.27491e-25))
1((-4.92052e-09 3.21601e-09 0))
1((1.73215e-09 2.92052e-09 0))
1((-3.98927e-09 -5.44403e-09 -9.60893e-25))
0()
1((3.09184e-09 4.23768e-09 0))
1((3.86859e-10 3.90656e-09 0))
1((0 0 0))
1((0 0 0))
0()
0()
0()
1((0 0 0))
0()
0()
0()
0()
0()
1((-3.25537e-07 1.87949e-07 -2.09938e-08))
2((-1.04934e-07 6.05837e-08 -1.79824e-08) (-9.15456e-10 2.99767e-09 -1.85784e-25))
1((5.43621e-10 -9.54161e-09 7.47153e-26))
1((-2.67409e-09 -4.60296e-09 0))
1((2.30143e-08 1.05806e-08 -1.40752e-23))
1((8.01577e-09 -1.13591e-08 4.52281e-25))
1((-6.35681e-09 1.35503e-08 1.26667e-24))
1((-3.69569e-09 1.86473e-09 0))
1((1.92488e-09 -3.38014e-09 0))
1((1.27033e-08 9.88105e-09 0))
1((2.27903e-09 2.25711e-09 -1.07218e-24))
1((1.12157e-08 1.00051e-08 -1.34732e-24))
1((3.87946e-10 -1.04435e-09 -2.3664e-25))
1((-8.71744e-09 3.6407e-09 1.57211e-24))
0()
1((-1.2877e-08 5.84083e-10 -5.80547e-25))
1((1.20936e-08 -1.74479e-08 8.63807e-26))
1((7.82482e-09 -3.60697e-08 2.08713e-24))
1((0 0 0))
0()
1((0 0 0))
0()
0()
1((1.95288e-10 2.25359e-09 0))
1((3.00997e-09 -6.74049e-09 -4.55814e-25))
1((1.74541e-09 -4.96355e-10 -5.69974e-25))
1((-1.40516e-09 -9.31112e-10 0))
1((-7.88634e-10 -1.05309e-08 7.6419e-26))
1((0 0 0))
1((4.94908e-11 3.00284e-10 0))
0()
1((1.91889e-09 1.02287e-08 -4.94211e-25))
1((-1.33022e-08 -1.33823e-09 3.99927e-24))
1((-7.40375e-11 3.9555e-10 0))
1((1.1722e-09 -3.81695e-09 0))
1((-2.87811e-09 -3.07857e-09 -3.33273e-24))
1((-3.02402e-09 -3.04309e-09 0))
1((-1.69405e-09 -3.8714e-09 0))
1((0 0 0))
0()
1((1.7468e-10 -9.21601e-09 1.48059e-24))
1((-2.76779e-09 3.13876e-09 -8.40216e-25))
1((-2.69119e-09 -4.33778e-09 6.26236e-25))
1((-6.67369e-09 -4.27929e-09 0))
1((3.6779e-09 -8.94502e-09 -6.02552e-25))
1((-4.46161e-11 6.70942e-09 1.30478e-24))
0()
1((0 0 0))
0()
1((2.70872e-09 -7.29904e-09 8.51136e-25))
0()
0()
0()
1((3.25812e-10 4.17146e-10 6.4761e-26))
1((-7.06091e-10 4.49411e-09 -1.36084e-24))
1((-4.23409e-09 1.02036e-10 -8.28724e-27))
1((4.665e-11 -3.1695e-09 0))
1((-3.17336e-09 -2.72497e-09 0))
1((2.10078e-09 -8.19083e-09 -1.88062e-24))
0()
0()
0()
1((0 0 0))
1((2.60685e-09 -9.45779e-10 0))
0()
0()
0()
0()
0()
0()
0()
2((2.4319e-08 -1.40406e-08 2.31811e-09) (9.06931e-09 -5.65581e-09 -6.30508e-25))
1((7.58877e-11 3.76448e-10 0))
1((0 0 0))
1((-1.21491e-08 6.88704e-09 5.29298e-24))
1((-1.60868e-08 -6.60062e-09 0))
1((-6.20123e-09 -1.51692e-08 9.26865e-25))
1((9.40737e-10 7.25017e-10 0))
1((1.35043e-09 -6.95567e-09 0))
1((-9.2529e-11 -3.70461e-09 0))
1((5.22733e-09 -1.35384e-10 0))
1((0 0 0))
0()
1((1.35639e-09 7.68711e-09 0))
0()
1((0 0 0))
1((-1.1287e-08 -4.81798e-09 0))
1((-1.32454e-08 -3.04525e-09 -2.22319e-24))
1((-4.79742e-09 8.6782e-10 -5.39326e-26))
1((-2.64316e-08 6.07881e-09 0))
1((-2.80637e-12 7.53727e-10 0))
0()
1((-5.72497e-09 9.97263e-10 0))
0()
1((8.30738e-09 -7.41745e-09 -1.20145e-25))
1((5.65429e-09 9.64032e-09 -1.30205e-24))
1((4.29818e-09 -3.9018e-09 1.34945e-24))
1((-3.55766e-09 9.94052e-10 1.57639e-24))
0()
0()
0()
1((5.15095e-09 7.59325e-09 7.03798e-24))
1((-7.17879e-09 -3.5955e-09 0))
0()
1((3.81887e-09 -1.38925e-08 0))
1((5.56532e-09 1.3295e-08 2.43865e-24))
1((0 0 0))
1((1.04104e-08 9.87246e-09 -3.84973e-25))
1((1.98869e-09 -1.20592e-10 0))
0()
0()
1((0 0 0))
1((-7.87674e-10 -7.28086e-10 0))
1((8.41924e-10 -1.54222e-08 0))
0()
1((-9.83201e-09 1.58739e-09 0))
1((-6.16651e-10 -7.28923e-09 0))
1((2.1034e-09 -2.2377e-09 0))
1((-6.22019e-09 1.708e-09 0))
1((-5.17599e-10 -7.37246e-10 0))
1((-8.62066e-09 3.79611e-09 0))
1((-1.48902e-09 -7.83109e-10 0))
1((-6.52527e-09 -3.66405e-09 0))
1((0 0 0))
1((2.91544e-09 2.33266e-09 0))
0()
1((0 0 0))
1((-8.79136e-10 1.19055e-09 0))
0()
1((0 0 0))
1((0 0 0))
0()
0()
0()
0()
0()
0()
0()
0()
0()
0()
0()
1((1.16954e-07 -6.75236e-08 3.2703e-08))
1((3.73604e-09 -2.15701e-09 1.74534e-09))
1((5.62462e-11 -1.39631e-11 0))
1((4.62188e-10 5.43432e-11 3.56784e-26))
1((0 0 0))
0()
1((3.35066e-09 -1.16659e-08 9.62121e-25))
1((1.74244e-08 -1.71027e-09 -1.35127e-24))
1((-6.36011e-10 7.8832e-09 -3.3294e-24))
1((7.22719e-09 -3.96425e-09 0))
0()
1((-2.17155e-08 -2.31191e-08 -4.54078e-24))
1((6.98153e-09 2.34611e-09 0))
1((9.76679e-09 -1.82856e-08 -7.10875e-25))
1((-2.68246e-09 2.52832e-09 4.10221e-24))
1((1.32907e-09 4.24215e-09 0))
0()
1((2.06195e-08 -3.94332e-10 2.34871e-24))
1((-1.46779e-08 -1.1997e-08 3.81168e-24))
1((-1.16909e-08 1.15074e-08 3.96957e-24))
1((-1.73769e-08 7.95228e-09 -1.40567e-24))
0()
1((4.30407e-09 5.82067e-09 0))
0()
1((-7.65241e-09 -7.40075e-09 1.08455e-24))
1((5.91835e-09 3.45071e-09 -1.8542e-24))
1((-4.90513e-09 5.57075e-09 0))
1((-9.22646e-09 -1.35821e-08 -5.49038e-24))
1((1.81882e-09 -5.69636e-09 5.76511e-25))
1((-5.148e-09 -8.31749e-09 0))
1((5.11239e-09 1.85033e-09 0))
1((5.38526e-09 -2.05658e-09 0))
0()
1((1.5787e-09 1.65421e-11 0))
1((0 0 0))
1((2.58554e-10 -3.00705e-09 -5.55288e-27))
1((2.21054e-09 1.30819e-10 0))
1((-1.1958e-10 -7.84374e-09 4.46042e-25))
1((-1.11032e-08 -1.01968e-08 -1.19428e-25))
1((2.49174e-09 2.87711e-09 0))
1((-1.09732e-08 -6.66091e-10 0))
1((-8.24022e-10 -9.26179e-10 0))
1((1.95057e-09 1.60499e-10 0))
1((-5.55564e-10 -1.29069e-09 0))
1((2.30761e-09 -3.71248e-09 2.17311e-25))
1((-3.1896e-10 -1.04025e-08 0))
1((-1.50569e-09 9.73266e-10 0))
0()
1((-4.73803e-09 -5.80478e-09 1.97633e-25))
1((-1.43294e-09 -3.07261e-09 0))
0()
1((0 0 0))
1((0 0 0))
1((5.72322e-10 -6.44781e-10 0))
1((1.67202e-09 -1.63191e-09 0))
1((-1.82353e-09 -5.63566e-09 0))
1((0 0 0))
1((1.64367e-09 -1.18712e-09 0))
1((6.30796e-10 -3.30795e-09 0))
1((0 0 0))
1((2.51584e-09 5.1616e-09 0))
1((-1.07e-09 8.82952e-10 0))
1((-4.45334e-09 -1.74166e-09 0))
0()
0()
0()
0()
0()
0()
0()
0()
2((-5.98996e-08 3.45831e-08 9.98749e-09) (3.32151e-09 -1.49847e-09 -3.17426e-26))
2((2.25146e-07 -1.29988e-07 2.86993e-09) (-9.77203e-09 -7.4093e-09 -2.76273e-24))
1((-6.83621e-09 -1.24546e-08 1.3825e-24))
1((2.27884e-09 1.93192e-08 -2.4297e-24))
0()
0()
1((-1.55865e-10 6.84663e-10 0))
1((3.24321e-08 -1.35067e-08 1.32581e-24))
1((4.61161e-09 -1.81489e-08 -1.49449e-24))
1((-1.37353e-09 -7.18555e-09 -2.3277e-25))
0()
0()
1((-8.24639e-09 2.42697e-09 0))
1((-2.91677e-09 -1.21126e-10 0))
0()
1((5.88016e-11 -2.47345e-10 0))
1((9.4876e-09 -1.35771e-09 0))
1((2.06041e-08 5.50022e-10 -1.24847e-24))
0()
1((-3.13417e-10 -2.03191e-08 0))
1((-1.43839e-08 -1.40118e-08 -2.66866e-24))
1((-4.3675e-10 -4.36602e-09 1.3712e-23))
1((-2.37742e-08 4.88522e-09 1.99967e-24))
1((-1.01788e-08 8.2731e-09 0))
1((-9.01174e-09 -8.10437e-09 -2.42303e-24))
0()
1((1.51456e-08 -9.9113e-09 -4.97154e-24))
1((2.38768e-09 -7.01965e-10 -5.54056e-24))
1((8.33915e-10 2.66857e-09 0))
0()
1((2.49971e-09 -1.49874e-09 0))
0()
1((0 0 0))
1((-2.36832e-09 -3.73692e-09 0))
0()
0()
1((1.4369e-09 -1.68621e-09 0))
1((0 0 0))
1((-1.74212e-09 3.25509e-09 0))
1((1.21784e-08 -1.61105e-08 3.68929e-25))
0()
0()
1((-3.97192e-09 -4.74929e-09 0))
1((-3.04044e-09 -4.64954e-09 0))
1((-4.28842e-11 1.60673e-09 0))
1((3.32926e-09 5.57629e-09 -7.86516e-24))
0()
0()
0()
1((6.75545e-09 -6.64419e-09 -1.64684e-24))
1((9.78142e-09 -7.01771e-09 6.67593e-24))
0()
1((3.21907e-10 3.41239e-09 0))
1((0 0 0))
1((2.97556e-10 -3.54156e-09 -2.50114e-26))
0()
1((0 0 0))
1((0 0 0))
1((-4.0759e-09 -9.11886e-09 0))
1((0 0 0))
0()
0()
1((0 0 0))
1((0 0 0))
1((-4.0681e-09 1.16294e-09 0))
1((5.72415e-09 -7.27097e-09 0))
0()
0()
0()
0()
0()
2((1.76723e-07 -1.02031e-07 1.02601e-08) (-1.60804e-08 -1.96459e-08 -1.63296e-23))
1((-9.99348e-09 -7.8921e-09 -7.89305e-24))
1((-2.48667e-08 -1.64898e-08 1.17517e-24))
1((-6.47674e-09 -8.55131e-09 -2.54176e-24))
0()
1((9.58376e-09 -4.868e-10 8.33934e-24))
1((-8.48332e-09 -1.54566e-08 -1.76358e-25))
1((2.92627e-08 4.95192e-09 -8.78414e-24))
1((4.38173e-09 -8.28972e-09 -4.68366e-24))
1((3.50241e-08 1.1729e-08 1.81056e-24))
1((8.98003e-09 -3.87541e-09 2.41027e-24))
1((2.98512e-09 4.22338e-09 1.09238e-25))
0()
1((1.96787e-08 1.25728e-08 1.0389e-24))
1((1.86695e-08 -1.96409e-09 0))
1((-1.28181e-09 -1.29544e-08 -5.08169e-25))
1((-3.85697e-09 -7.33044e-09 1.7833e-25))
1((-6.07357e-09 6.61101e-09 -3.42628e-24))
1((0 0 0))
1((0 0 0))
1((0 0 0))
1((0 0 0))
1((5.43749e-10 -2.2075e-09 0))
1((1.67101e-08 -1.51219e-08 0))
1((2.11079e-08 -5.37149e-09 -8.66193e-24))
1((5.85029e-09 -1.92109e-09 -6.99983e-25))
0()
1((0 0 0))
0()
1((0 0 0))
0()
1((0 0 0))
0()
1((1.05124e-10 1.31936e-08 0))
1((0 0 0))
1((-1.85718e-09 9.98446e-10 0))
1((0 0 0))
1((0 0 0))
1((9.86609e-10 -1.28026e-09 0))
1((4.99502e-09 -3.63495e-09 9.09165e-25))
1((-2.9767e-10 -1.4232e-08 2.93969e-24))
1((-9.08407e-10 -4.1226e-09 0))
1((-6.2169e-09 4.10497e-09 0))
0()
1((-1.10841e-09 -2.5249e-09 0))
1((2.74584e-10 -8.10557e-10 0))
1((-1.19164e-09 -2.07622e-10 0))
1((-1.33827e-09 -9.64204e-10 0))
0()
1((0 0 0))
1((1.45584e-08 -4.40598e-09 -8.006e-25))
1((-6.90835e-09 6.60336e-09 1.18191e-24))
1((-7.68342e-09 -8.76528e-10 -5.96124e-24))
1((3.81649e-10 -2.89969e-10 0))
1((-4.87366e-10 2.00566e-09 0))
0()
1((-3.16887e-09 4.56606e-09 0))
1((0 0 0))
0()
0()
0()
0()
1((0 0 0))
1((1.88782e-09 -4.45627e-09 0))
0()
1((0 0 0))
0()
0()
0()
0()
0()
1((1.78781e-09 -9.88036e-09 0))
0()
1((-9.34127e-09 -7.62513e-09 -2.74344e-24))
1((4.96307e-09 -6.31082e-09 0))
1((5.61766e-11 -1.45949e-10 0))
1((7.08591e-09 1.37584e-09 2.58047e-24))
1((-9.39182e-09 -2.06527e-08 -1.58618e-23))
1((-1.21713e-09 -1.30748e-09 0))
1((6.5122e-09 1.79603e-09 2.09803e-25))
1((-1.30263e-08 -1.60041e-08 -1.18642e-23))
1((9.98558e-09 4.60538e-08 4.90565e-24))
1((1.69635e-08 -1.32791e-09 0))
1((1.84872e-08 4.69709e-09 -5.49513e-24))
0()
1((5.91014e-10 -1.49155e-09 0))
1((7.687e-10 -4.04143e-10 0))
1((-1.83432e-09 -4.03313e-09 0))
1((0 0 0))
1((-1.78462e-08 1.23757e-09 -3.91469e-24))
1((5.1491e-09 9.7347e-09 0))
0()
1((-1.53198e-08 -1.66646e-09 -1.15798e-24))
1((2.04594e-09 -1.42072e-09 0))
1((5.42363e-09 -8.18114e-09 -3.50666e-24))
1((1.59689e-08 4.61609e-09 1.02374e-23))
1((4.25424e-09 9.70342e-09 5.63739e-24))
1((-7.3281e-09 -1.04395e-08 6.90106e-25))
1((1.0241e-09 -1.82985e-09 0))
1((5.99525e-09 -4.29733e-09 0))
0()
0()
0()
0()
1((-1.48758e-08 -1.83956e-09 0))
1((-5.15397e-09 -7.46858e-09 0))
1((-2.08018e-09 8.67153e-10 0))
1((-1.1848e-08 3.75796e-09 0))
1((0 0 0))
1((-1.69148e-09 -4.55141e-10 0))
0()
1((0 0 0))
1((8.19091e-10 -9.32819e-09 2.62438e-25))
1((-5.36807e-09 -1.13585e-08 1.27445e-24))
0()
1((-4.36959e-10 5.28874e-10 -2.30272e-25))
1((5.70254e-09 2.97976e-09 -7.21862e-25))
1((7.70008e-10 3.62484e-11 0))
1((0 0 0))
1((-1.02697e-09 -1.66484e-09 0))
1((8.47756e-10 -9.58719e-10 1.47582e-25))
0()
1((-7.42329e-10 2.92655e-09 0))
1((0 0 0))
0()
1((4.21565e-10 -8.09875e-10 0))
1((1.26298e-09 6.93264e-10 0))
1((3.74809e-09 -1.17935e-09 0))
1((8.33091e-10 -1.05314e-09 0))
0()
0()
1((5.87519e-09 -6.16826e-09 0))
1((0 0 0))
1((0 0 0))
0()
0()
0()
0()
0()
0()
0()
0()
2((1.11238e-07 -6.42234e-08 -3.81937e-09) (-5.1224e-09 -1.21746e-08 2.05239e-24))
1((-2.92603e-09 -6.86271e-09 7.27731e-25))
1((3.56077e-10 -1.79158e-08 -3.91075e-24))
1((8.55504e-09 1.01658e-08 1.05652e-23))
1((2.16805e-09 -1.33718e-09 0))
1((-5.94853e-09 2.78207e-09 -7.86244e-26))
1((0 0 0))
1((0 0 0))
0()
1((4.55704e-09 -1.75767e-08 -1.95526e-23))
1((1.12604e-08 -4.64096e-09 0))
1((1.72145e-08 -5.71457e-09 0))
0()
1((-2.13773e-08 -2.78602e-09 0))
1((-6.74636e-09 7.48631e-10 -1.55603e-24))
1((-8.15299e-10 -5.37554e-10 0))
0()
1((-3.4955e-09 -2.32083e-09 -5.16139e-24))
1((-2.11044e-08 -1.08103e-08 0))
1((2.40509e-08 2.48406e-09 -3.57914e-24))
1((-1.5999e-08 -7.43176e-09 7.92414e-24))
1((0 0 0))
1((7.48659e-10 -1.09796e-09 -5.52578e-25))
1((-2.61608e-10 -6.73464e-10 0))
1((0 0 0))
0()
1((9.19967e-09 -1.20803e-08 0))
1((1.90534e-09 -3.97025e-09 0))
1((3.87731e-09 9.87639e-09 0))
1((-5.13932e-09 2.05926e-09 0))
1((2.85866e-08 1.18803e-09 -2.72132e-23))
1((0 0 0))
0()
1((-9.29805e-10 1.32915e-09 0))
1((-6.6834e-09 3.21909e-10 0))
0()
1((7.34414e-10 -2.46977e-09 0))
1((1.09742e-08 -9.96394e-09 -5.94507e-24))
1((7.75505e-09 -1.31498e-08 -3.22256e-25))
1((-8.62148e-09 7.27597e-10 -1.87746e-23))
1((1.45028e-09 -1.52478e-08 -1.48701e-23))
1((4.04921e-09 -2.14287e-09 0))
1((-2.1828e-09 -6.66196e-09 -1.07568e-23))
1((1.1219e-08 8.18102e-09 0))
1((8.81279e-09 1.33979e-08 1.58758e-24))
0()
1((-4.8487e-09 3.25418e-09 -2.06931e-24))
0()
0()
1((-4.12692e-09 1.70334e-09 2.47298e-24))
0()
0()
0()
0()
1((0 0 0))
1((5.72686e-09 1.91242e-09 0))
1((5.84296e-09 -1.47404e-09 0))
0()
1((0 0 0))
1((0 0 0))
0()
1((0 0 0))
1((0 0 0))
0()
0()
0()
0()
0()
0()
0()
2((2.80838e-07 -1.62142e-07 5.48477e-08) (1.66255e-08 9.80449e-09 0))
0()
1((-3.69904e-08 3.12654e-08 9.11966e-24))
1((1.0523e-10 8.51156e-10 0))
1((-5.15568e-10 6.63192e-10 0))
1((5.84647e-09 -4.08704e-09 7.27811e-25))
1((1.44748e-10 -6.02517e-11 0))
1((0 0 0))
1((2.6487e-08 -2.01368e-08 -1.68733e-25))
0()
1((3.94363e-09 -1.87929e-08 8.47721e-25))
1((7.21637e-09 -7.61731e-09 0))
0()
1((-7.9021e-09 -2.7678e-08 -3.55484e-24))
1((6.71471e-09 -1.9785e-08 -1.48607e-23))
1((-4.8305e-09 4.10182e-09 -6.80192e-24))
1((0 0 0))
1((-1.43527e-08 -4.52739e-09 0))
1((-4.78043e-09 1.75324e-08 3.75354e-24))
1((-1.0392e-08 1.01945e-08 -2.88855e-24))
1((-6.03227e-10 1.11987e-08 6.18266e-24))
1((-6.18157e-09 -1.09554e-09 0))
0()
1((-1.75223e-09 5.15413e-09 1.23215e-24))
1((-7.678e-10 7.48004e-10 0))
1((6.68402e-09 1.77558e-08 -4.71184e-24))
0()
1((-2.33815e-09 -1.39903e-08 0))
0()
1((0 0 0))
0()
0()
1((5.20919e-09 -6.70513e-10 0))
1((0 0 0))
0()
1((0 0 0))
1((0 0 0))
1((-4.86534e-10 3.5519e-09 0))
1((8.55963e-11 -2.91919e-10 0))
1((0 0 0))
1((-6.11676e-09 9.70636e-09 0))
1((0 0 0))
1((-2.30373e-09 -4.19152e-09 2.22686e-25))
1((-2.985e-09 -3.77584e-09 0))
1((3.0014e-09 -4.59668e-09 0))
1((-6.64897e-09 -8.28504e-09 -7.11654e-26))
1((-1.25942e-08 -6.48271e-09 -4.35036e-24))
1((-1.20637e-09 -1.93413e-09 0))
1((-8.12423e-09 1.7198e-09 7.93936e-24))
1((9.04634e-09 2.06335e-09 2.63219e-24))
1((-3.44749e-09 -8.15637e-10 0))
1((-5.79866e-10 1.3034e-09 0))
1((-9.55803e-10 2.328e-09 0))
1((4.59343e-09 -1.15132e-09 0))
0()
0()
0()
0()
0()
1((0 0 0))
1((4.77784e-10 1.1581e-08 0))
1((-3.70432e-09 3.39718e-09 0))
0()
0()
0()
0()
0()
0()
0()
1((-5.42196e-09 -2.5922e-10 0))
1((0 0 0))
1((3.01442e-10 -6.21195e-10 0))
1((-8.01082e-09 -6.25077e-09 0))
1((2.92525e-10 -1.00081e-08 -1.96053e-24))
0()
1((-5.25767e-09 -9.10813e-09 2.09451e-24))
1((-1.17091e-09 -5.70739e-09 7.0687e-24))
1((1.46454e-09 -1.33407e-10 -2.07772e-24))
1((-1.30784e-09 -8.4217e-09 0))
1((3.30085e-09 -9.44893e-10 0))
0()
1((1.94294e-09 -1.71488e-09 0))
1((1.72916e-10 -2.97254e-10 0))
0()
1((0 0 0))
0()
0()
1((7.21225e-09 1.66876e-09 0))
1((0 0 0))
1((0 0 0))
0()
0()
1((0 0 0))
0()
0()
0()
0()
1((0 0 0))
0()
1((4.06584e-09 -2.80013e-10 0))
0()
1((0 0 0))
1((4.79016e-09 -3.98054e-09 0))
1((-1.00149e-08 -1.31322e-08 0))
0()
1((1.05005e-09 -6.4784e-09 -4.15148e-24))
1((9.77182e-10 -9.36737e-10 6.44429e-25))
0()
1((-6.90976e-09 -3.39736e-09 0))
1((-4.72902e-09 -3.17059e-09 0))
1((0 0 0))
1((-2.40059e-09 4.16987e-09 0))
1((0 0 0))
1((-3.14992e-09 -1.35348e-09 0))
1((0 0 0))
0()
0()
1((0 0 0))
0()
0()
0()
0()
0()
0()
1((-7.03399e-10 2.30592e-09 0))
1((-7.09295e-09 -2.89227e-09 0))
1((-3.6033e-09 -1.97193e-09 0))
1((-1.9093e-09 2.23294e-09 -2.08312e-23))
1((0 0 0))
1((-2.44252e-10 -1.19211e-08 0))
1((-4.95527e-09 -2.33565e-10 4.84694e-25))
1((-2.72638e-09 7.33103e-09 0))
0()
1((-1.2353e-09 -8.48303e-10 0))
1((0 0 0))
1((-2.37817e-10 3.30243e-09 0))
1((0 0 0))
0()
0()
0()
0()
1((1.007e-08 -1.53948e-08 6.34601e-24))
1((-9.2287e-10 -3.34955e-10 0))
1((-2.25012e-08 -1.11834e-08 6.75199e-24))
2((-3.31154e-08 1.91192e-08 1.79583e-10) (-2.32782e-09 -4.30058e-10 -2.02259e-24))
1((0 0 0))
0()
1((-2.62506e-09 -5.10815e-09 -3.51372e-25))
1((-1.88698e-08 -2.72411e-09 -3.45239e-24))
1((0 0 0))
1((7.02731e-10 -6.05962e-09 9.04948e-25))
2((2.92141e-08 -1.68668e-08 -3.60935e-09) (-2.50216e-09 6.65046e-10 6.87631e-24))
1((-3.63417e-11 -6.07761e-09 0))
1((0 0 0))
1((-4.62182e-09 -2.31405e-08 0))
0()
1((4.38992e-10 -1.30391e-08 -9.05535e-25))
1((-6.46054e-09 -4.49305e-09 -9.90199e-25))
1((-1.1667e-08 -2.34724e-09 -3.98752e-25))
1((-1.7028e-08 -1.25412e-08 5.92608e-24))
1((-4.18836e-09 4.13281e-09 5.23058e-24))
1((-3.08261e-10 -1.21687e-08 0))
1((-1.37028e-08 -5.74775e-09 4.78431e-26))
1((1.07775e-08 -1.91845e-09 0))
1((2.30012e-09 -1.10436e-09 -2.4903e-24))
1((-3.92286e-09 -1.7296e-08 -1.38302e-23))
1((-6.32601e-09 -1.13964e-09 0))
1((1.4242e-09 -4.55054e-10 0))
0()
1((4.88602e-09 4.80364e-09 0))
1((2.33732e-10 -2.81927e-09 0))
0()
0()
1((2.16998e-09 9.47098e-10 0))
1((-6.18218e-09 -6.97987e-09 0))
1((2.46511e-09 -8.84158e-11 0))
1((-5.05754e-10 2.08636e-09 0))
1((-5.48498e-09 -1.24063e-08 -3.48392e-24))
1((-1.02734e-09 -6.7521e-09 0))
1((6.74546e-10 1.54012e-09 0))
1((-4.84955e-09 -5.53839e-09 2.5488e-24))
1((6.15445e-09 3.64907e-09 4.64753e-24))
0()
1((-1.93298e-09 3.91851e-09 -5.04678e-24))
1((7.29233e-10 9.88733e-10 0))
0()
1((-3.07134e-09 2.43576e-09 -1.42401e-24))
1((0 0 0))
1((2.05642e-09 -2.27284e-09 0))
1((1.57978e-09 5.51551e-09 0))
1((-1.06729e-08 -1.59943e-08 1.83404e-24))
1((0 0 0))
1((-1.3668e-09 -3.3228e-11 0))
1((7.11662e-11 -7.55845e-09 0))
1((-1.25282e-08 -1.1301e-08 1.41009e-23))
1((-1.60115e-08 -7.13515e-09 0))
1((-1.87894e-09 -1.7442e-08 -1.22626e-24))
1((-1.4146e-10 -1.54387e-09 0))
1((-2.67386e-09 -1.13805e-08 0))
0()
1((-5.1664e-10 -2.48899e-10 0))
1((-9.48678e-09 -9.46838e-09 -4.75918e-24))
1((1.24143e-09 -5.96074e-10 0))
1((8.5954e-09 -3.13492e-09 0))
1((3.95173e-11 -1.6174e-09 0))
0()
1((6.71759e-10 -8.18849e-09 1.94871e-25))
1((6.66923e-11 -2.10321e-10 0))
1((2.48814e-10 3.05686e-10 2.95923e-24))
0()
1((6.96009e-09 -1.33774e-08 -7.45995e-25))
1((0 0 0))
0()
1((-6.02472e-11 -2.74779e-09 0))
1((2.2631e-10 2.46376e-09 3.4318e-24))
1((8.51134e-10 7.66867e-10 0))
1((2.29009e-09 7.75532e-09 -1.02228e-23))
1((2.02315e-08 -9.56952e-09 3.80492e-24))
1((0 0 0))
0()
1((9.01371e-10 -2.33682e-08 -5.01485e-23))
0()
1((-7.80826e-09 -5.77043e-09 0))
1((-9.47654e-09 -8.67234e-10 2.25982e-24))
1((-2.10184e-08 9.23885e-09 7.60924e-24))
1((-5.77144e-09 8.01034e-09 -9.08601e-25))
1((-4.24524e-09 -3.85128e-09 0))
1((9.13036e-10 2.31984e-09 0))
1((0 0 0))
1((-1.95786e-08 7.93948e-10 4.34193e-24))
1((0 0 0))
1((2.05316e-09 1.99335e-08 1.12098e-24))
1((-2.03415e-10 -3.93978e-09 -1.22231e-23))
1((2.79056e-09 7.22566e-09 -8.93378e-25))
1((0 0 0))
1((6.17738e-10 1.00264e-10 -9.7928e-25))
0()
1((-3.25649e-09 -1.99446e-09 0))
1((0 0 0))
1((5.51629e-10 2.55211e-09 -2.40868e-24))
1((4.66073e-10 5.29568e-10 1.25989e-24))
1((-3.26716e-10 2.85863e-09 0))
1((2.6902e-09 8.53078e-09 0))
1((-7.55148e-09 3.20301e-09 -5.65136e-24))
0()
1((0 0 0))
0()
1((1.04032e-08 7.34346e-09 -2.83291e-24))
1((-1.30571e-09 -1.92853e-09 2.80127e-25))
1((-2.00939e-09 -1.28407e-08 -1.76616e-24))
1((-3.53076e-09 1.1273e-09 0))
0()
1((-1.70118e-09 -1.37476e-08 0))
1((-3.10177e-10 -1.1346e-09 0))
1((-1.45234e-09 -1.69006e-09 0))
0()
1((-1.53118e-08 5.32264e-09 1.72795e-24))
1((-1.77422e-08 3.69661e-09 3.69858e-24))
1((4.61135e-09 -5.67472e-09 -2.18483e-24))
1((-8.27156e-09 -5.37087e-10 2.40347e-24))
1((-1.38851e-08 8.81681e-09 0))
1((-1.38133e-09 8.76113e-09 1.40509e-25))
0()
1((-1.10485e-08 -2.88283e-08 -1.04625e-24))
1((1.29928e-08 -1.72131e-08 -1.51093e-25))
1((-2.92811e-09 -5.1014e-09 0))
0()
1((-6.98744e-09 -6.08179e-10 -1.10184e-24))
1((-1.33726e-08 -1.01842e-08 -3.92233e-24))
1((1.23174e-09 -2.94362e-09 -6.17868e-25))
0()
1((-5.26868e-10 4.64468e-09 1.54134e-24))
1((-1.40296e-09 -5.20135e-09 0))
0()
1((-2.00328e-09 -6.13102e-09 -2.10685e-24))
1((6.7771e-09 -1.75047e-08 -2.17422e-24))
1((-1.33969e-09 -1.56979e-08 -6.99855e-24))
1((-7.55637e-11 -1.57147e-09 0))
1((-2.02733e-09 -1.58516e-09 0))
1((-2.17145e-09 -9.35956e-10 0))
1((0 0 0))
0()
1((-5.27172e-09 -4.16082e-09 1.53284e-24))
1((8.16234e-09 -5.86006e-09 0))
1((1.46723e-08 -3.16209e-09 4.14119e-24))
1((-5.1251e-09 9.08619e-09 0))
1((1.0544e-10 5.42098e-10 0))
1((-1.86528e-09 2.73825e-10 0))
1((-7.95365e-10 -1.03516e-09 0))
0()
1((0 0 0))
1((-1.6112e-09 -2.84663e-09 0))
0()
1((5.64184e-09 3.40704e-09 -4.05349e-24))
0()
0()
0()
0()
0()
0()
0()
0()
0()
0()
1((-9.42394e-08 5.44091e-08 6.48714e-09))
0()
0()
1((4.67947e-09 4.26011e-10 -4.87278e-24))
1((-6.16123e-09 -1.42774e-08 0))
0()
1((1.28838e-09 -2.92809e-09 5.01681e-25))
0()
1((1.42064e-08 6.33118e-10 8.5171e-25))
0()
1((3.52397e-09 -9.45659e-11 0))
1((-2.06806e-09 -8.37695e-09 3.58195e-24))
0()
1((9.16252e-10 -2.74984e-09 -1.91779e-24))
1((-1.19655e-09 -2.93188e-09 0))
0()
1((-4.82032e-09 -5.81026e-10 0))
1((4.70018e-09 -2.01163e-09 3.32544e-25))
1((-1.39656e-09 -3.86552e-09 0))
1((-3.82591e-09 -2.45872e-09 7.94702e-25))
1((1.4164e-09 4.88106e-10 0))
1((-1.07987e-09 -1.5616e-09 -5.93638e-25))
1((5.07208e-10 1.33101e-09 -1.24047e-24))
1((-1.11798e-08 -2.69576e-08 -1.64379e-24))
1((-7.53187e-10 3.72193e-09 1.4705e-24))
0()
1((-3.67789e-10 -1.6923e-09 0))
0()
1((-1.35756e-09 1.84443e-08 -1.03548e-24))
1((9.31764e-10 5.68092e-09 7.91265e-25))
0()
1((-3.90342e-09 -1.03442e-08 0))
1((-9.04605e-09 -1.17024e-09 -3.16666e-24))
1((2.25787e-09 -3.50552e-09 1.21645e-24))
1((-3.00599e-09 4.14876e-09 0))
1((8.87832e-10 -1.32691e-09 0))
1((0 0 0))
1((-5.38825e-10 -7.8121e-09 0))
1((-9.4794e-10 -2.52708e-09 0))
1((-1.80626e-10 6.46785e-09 2.64068e-24))
1((1.69632e-09 4.56278e-10 0))
0()
0()
1((6.18205e-10 1.1058e-09 0))
0()
1((-7.56837e-10 -6.68696e-09 0))
1((1.11152e-09 3.9294e-09 0))
0()
1((0 0 0))
0()
1((7.75263e-10 -8.3472e-09 0))
1((1.6096e-09 5.88918e-09 0))
1((0 0 0))
1((4.02344e-10 1.47055e-09 0))
0()
1((-6.09273e-10 -5.51465e-10 0))
1((-8.65194e-11 -4.45913e-09 0))
0()
1((0 0 0))
1((6.41387e-09 -4.58989e-09 0))
1((5.15982e-09 5.32267e-09 0))
1((0 0 0))
1((0 0 0))
0()
0()
0()
0()
0()
0()
0()
0()
2((2.47116e-07 -1.42672e-07 -1.35015e-08) (1.08422e-09 -1.26314e-08 -3.12606e-25))
1((-2.38775e-08 3.00591e-10 0))
1((5.68302e-09 -6.70873e-09 -1.009e-24))
1((-2.78888e-08 -6.53995e-09 -2.6656e-25))
1((0 0 0))
0()
1((-8.65922e-10 -2.25663e-09 0))
1((-1.04277e-08 -2.22598e-09 4.72691e-26))
1((6.28618e-09 2.52203e-09 -6.53735e-25))
1((1.24406e-09 -1.0814e-08 0))
0()
1((-4.69557e-09 -1.3736e-08 3.90464e-25))
1((-7.15402e-09 -1.30532e-08 -3.66965e-24))
1((-1.47413e-09 1.28279e-09 -1.72146e-25))
1((2.29547e-09 -2.77732e-09 5.16526e-24))
1((0 0 0))
0()
1((-6.1065e-09 3.27234e-10 6.95162e-25))
1((-4.4025e-09 -2.17038e-08 1.94427e-23))
0()
1((-8.66819e-10 -1.1245e-09 0))
1((-8.18694e-11 -2.87284e-10 0))
0()
1((3.59547e-10 1.16302e-09 1.6704e-26))
1((-5.47319e-09 -1.09174e-08 -2.98564e-25))
1((-3.86762e-10 -5.76681e-09 4.30854e-25))
1((-5.33383e-09 -8.43022e-09 0))
0()
0()
1((4.34178e-09 3.49348e-09 -1.56052e-24))
1((-3.89299e-09 -5.63854e-10 -1.33935e-23))
1((1.05298e-08 5.44165e-09 3.34678e-24))
1((-6.16198e-09 -3.91887e-09 0))
1((-9.83678e-09 1.16014e-08 3.75166e-24))
1((-4.65203e-09 -3.69319e-09 0))
0()
1((-3.08954e-09 7.25291e-10 0))
0()
1((-5.45639e-09 -1.89246e-09 0))
1((-1.07839e-09 -6.08787e-09 9.98021e-26))
1((-2.13701e-09 -2.48979e-09 -9.86679e-25))
1((0 0 0))
1((0 0 0))
0()
1((0 0 0))
1((0 0 0))
0()
1((5.65159e-09 1.2663e-08 0))
1((-4.98747e-10 3.9222e-09 0))
1((-6.37611e-10 1.04993e-09 -6.45959e-24))
0()
1((1.07435e-08 -3.19886e-09 -6.18503e-24))
0()
0()
0()
1((-6.28575e-09 -3.14366e-09 0))
0()
1((0 0 0))
1((0 0 0))
0()
0()
0()
0()
0()
0()
0()
0()
0()
0()
0()
0()
2((-2.47251e-09 -2.09832e-09 1.16162e-23) (-3.0086e-08 1.73701e-08 -9.94798e-09))
1((-1.95534e-08 -2.87882e-08 6.17904e-25))
1((-8.71993e-09 -2.66172e-08 0))
1((-1.45874e-09 -1.93609e-08 -1.42153e-23))
1((-3.10086e-08 -1.6417e-09 -2.73216e-23))
1((3.2429e-09 5.43627e-09 1.21821e-24))
1((2.97584e-09 -1.99903e-09 0))
1((4.04552e-09 3.13981e-09 1.06019e-23))
1((1.57947e-08 -6.74514e-09 2.56243e-24))
1((-1.1832e-08 -1.07808e-08 -7.50915e-25))
1((2.27424e-09 -1.27329e-08 -1.92637e-24))
1((-4.51392e-09 7.72008e-10 1.6093e-24))
0()
1((-5.61598e-09 -1.56558e-08 1.04824e-24))
1((3.33945e-09 -1.43447e-08 1.95812e-24))
1((0 0 0))
1((0 0 0))
1((7.17763e-10 3.18366e-09 0))
1((3.02415e-09 1.67749e-08 0))
0()
1((3.12771e-09 -2.19355e-09 -1.11465e-25))