/*--------------------------------*- C++ -*----------------------------------*\
  =========                 |
  \\      /  F ield         | OpenFOAM: The Open Source CFD Toolbox
   \\    /   O peration     | Website:  https://openfoam.org
    \\  /    A nd           | Version:  10
     \\/     M anipulation  |
\*---------------------------------------------------------------------------*/
FoamFile
{
    format      ascii;
    class       vectorField;
    location    "0/lagrangian/cloud";
    object      f;
}
// * * * * * * * * * * * * * * * * * * * * * * * * * * * * * * * * * * * * * //


3300
(
(-1.0464e-05 0.000981659 4.042e-05)
(-1.18315e-05 0.00110322 1.97132e-05)
(-1.34126e-05 0.00106113 -1.6302e-05)
(2.31163e-05 0.00129346 -2.26363e-05)
(-3.29015e-05 0.000970887 5.95793e-07)
(-1.598e-05 0.00102148 7.80961e-06)
(-2.81443e-05 0.00103032 -8.36165e-07)
(1.84939e-07 0.00104874 1.38445e-05)
(-3.43208e-06 0.0010488 1.17554e-05)
(-3.68337e-05 0.00111668 1.0721e-05)
(-2.30457e-05 0.000990039 -8.52062e-06)
(-5.37702e-05 0.00102254 -7.65626e-06)
(1.64041e-05 0.00100841 -3.45803e-05)
(2.95717e-05 0.00100391 -1.30587e-08)
(-6.54533e-05 0.00108431 1.47502e-05)
(0.000123878 0.00104291 -3.02044e-05)
(3.44655e-05 0.00100233 -6.20341e-05)
(3.52093e-05 0.00102815 -4.44717e-05)
(-4.68779e-06 0.00101998 -3.40077e-05)
(-5.06774e-06 0.00108778 7.34954e-06)
(5.4277e-05 0.00110751 -4.10453e-06)
(0.000108694 0.00115602 -1.08229e-05)
(-5.48567e-05 0.00108363 2.23928e-05)
(-0.000145662 0.00111006 1.76685e-05)
(-9.00156e-05 0.0011481 -8.2835e-05)
(-0.000320629 0.000988966 -0.000190194)
(3.08628e-06 0.00142783 -0.000123021)
(-4.88904e-06 0.00121433 7.60043e-05)
(0.000161715 0.00146436 -4.52567e-05)
(-0.000107691 0.0010752 0.00151845)
(-5.26378e-05 0.000969201 0.000117483)
(6.06157e-05 0.00084763 3.21602e-05)
(0.000265444 0.000105727 0.000128373)
(0.000426029 0.00116157 -0.000153531)
(0.000167886 0.00105297 -0.000188853)
(-0.000259404 0.00118577 -6.51984e-05)
(-0.000249339 0.00101978 -0.000234883)
(-0.000348643 0.00135159 -0.000122621)
(-0.000545077 0.00100519 -6.89716e-05)
(-0.000289346 0.000818344 0.000124687)
(4.86623e-05 0.00106954 -0.000123656)
(-0.000364198 0.00085181 0.000177693)
(-0.000214568 0.000803642 -4.72529e-05)
(2.2113e-05 0.00116169 6.47454e-05)
(-0.000238701 0.00078172 -1.66187e-05)
(0.00041942 0.0007046 0.000288542)
(-5.58738e-05 0.000749495 0.000246195)
(-9.57109e-05 0.00108055 -0.000517466)
(-0.000179438 0.000890087 -1.19527e-06)
(-0.000324617 0.00088478 -1.96678e-05)
(-2.6806e-05 0.00131599 -0.000235229)
(0.000363696 0.000996391 5.56973e-05)
(0.000297645 0.00108898 4.29058e-05)
(9.79152e-05 0.00126796 5.02008e-05)
(0.000129007 0.00120471 -8.50598e-05)
(0.00024477 0.00113839 5.47353e-05)
(0.00032834 0.0012275 7.08562e-05)
(-1.14118e-05 0.00120303 8.52019e-05)
(-5.29741e-05 0.00106653 8.99239e-05)
(1.03869e-05 0.00107895 0.000112891)
(-0.000116156 0.00101872 1.98294e-05)
(-1.17502e-05 0.000968839 8.23655e-05)
(-1.21775e-05 0.000971095 6.03763e-05)
(-5.22464e-05 0.0010652 -8.08081e-05)
(-5.51755e-05 0.00104377 -7.88392e-05)
(3.57569e-05 0.00100109 3.36404e-05)
(8.42714e-05 0.00107564 3.42632e-05)
(-2.39069e-05 0.00107565 3.21804e-05)
(2.00151e-05 0.00105962 2.76117e-05)
(4.93452e-05 0.00107077 -2.56426e-06)
(-7.86179e-05 0.00103999 1.81314e-05)
(-0.00023781 0.00111772 6.39519e-05)
(-9.80967e-05 0.00108738 -2.87624e-05)
(-2.3156e-05 0.00106674 -1.0197e-05)
(-1.82026e-05 0.00112553 1.08563e-05)
(-2.16885e-05 0.00115369 -3.19693e-06)
(-0.000103132 0.00109624 -2.2435e-05)
(-0.000123936 0.00107834 2.39096e-05)
(4.29861e-05 0.000963443 3.28096e-05)
(9.69289e-05 0.000986924 -7.75577e-06)
(4.01312e-05 0.00108704 5.46446e-05)
(7.01844e-05 0.00109124 -8.18034e-05)
(1.05671e-05 0.0010664 -9.85952e-06)
(-3.07883e-05 0.00100376 4.02953e-06)
(1.092e-05 0.00096585 2.80208e-05)
(6.37148e-05 0.000991978 -2.50226e-05)
(-4.52833e-05 0.00109415 1.31483e-05)
(-7.43991e-05 0.00110428 1.6065e-05)
(-0.000110054 0.00092163 -8.15779e-05)
(-0.000145522 0.000913016 -3.91461e-05)
(-0.00010388 0.00130124 3.26518e-05)
(8.6308e-05 0.00120944 -6.79269e-05)
(-8.85067e-05 0.00124985 1.39144e-05)
(-0.000455407 0.000831524 6.9638e-05)
(-6.27488e-05 0.000802723 8.80244e-05)
(-5.29148e-05 0.00046061 0.000108545)
(0.00143964 0.00308857 0.000255213)
(-0.00099673 0.00030793 -0.000206951)
(0.000207068 0.00129219 -5.42704e-05)
(0.000304105 0.00140752 -3.44834e-05)
(-0.000106792 0.00114736 5.16885e-08)
(-6.42511e-05 0.000820907 3.82129e-06)
(0.00340749 -0.00143376 -0.000317382)
(5.71999e-06 0.0015026 9.22941e-05)
(0.0002049 0.000322705 -7.99597e-06)
(-8.30536e-06 0.00111364 -7.08391e-07)
(-4.64144e-05 0.0011268 -9.75374e-05)
(4.07877e-05 0.00134677 -6.18914e-06)
(-0.000608803 0.00096724 -7.5682e-05)
(0.000551448 0.00150079 -0.000220637)
(-0.000240892 0.00119588 4.292e-06)
(-0.00038497 0.00106209 0.000139013)
(-0.000324963 0.00139632 0.000124928)
(0.000546153 0.00144732 0.000335243)
(0.00017823 0.00106621 -0.000228625)
(0.000112736 0.000695958 -6.57026e-05)
(-7.59353e-05 0.00103475 -0.000157755)
(0.000452552 0.00103774 -0.000174147)
(-0.000324698 0.00132862 -1.3559e-05)
(-0.00052587 0.00177527 6.77962e-05)
(-0.000540641 0.00135424 -2.44828e-06)
(3.97184e-06 0.00143721 -0.000494683)
(0.000217491 0.001117 -0.00051172)
(-1.42807e-05 0.00108516 -0.000147109)
(0.000132952 0.00108544 -0.000174596)
(-8.12653e-05 0.00125766 -7.44498e-05)
(-9.38281e-05 0.00114489 -1.9606e-05)
(0.000249267 0.00114513 -1.86611e-05)
(-7.91753e-05 0.00128242 0.000138852)
(-1.82864e-05 0.00108677 -3.03839e-06)
(2.03973e-05 0.00119646 3.5625e-05)
(-1.16216e-05 0.000959282 3.04462e-05)
(0.000121588 0.00100455 0.000108941)
(-5.81762e-05 0.000995988 6.83871e-05)
(5.60316e-05 0.00116441 -3.87167e-05)
(9.63776e-05 0.0014396 -8.60365e-05)
(0.000432098 0.00100771 -2.73668e-05)
(5.4881e-05 0.00103752 5.92651e-05)
(-2.78303e-05 0.000890548 0.000108261)
(-1.77972e-05 0.0010827 -0.000182365)
(-4.84717e-05 0.00102027 0.00015649)
(9.7872e-05 0.000983753 -2.72269e-05)
(3.7839e-05 0.00115964 -9.18665e-05)
(4.78838e-05 0.00110605 -6.702e-05)
(-6.61283e-05 0.00119114 -8.9307e-06)
(-0.00023024 0.00122389 2.27592e-05)
(-0.000159577 0.00113344 7.16194e-06)
(-1.87094e-05 0.00105535 9.43927e-07)
(-5.69064e-05 0.00114818 -1.39654e-05)
(-7.54092e-06 0.00109925 -7.42979e-05)
(6.99901e-06 0.00106167 -1.51689e-05)
(4.52781e-05 0.00104997 5.26548e-05)
(6.06079e-05 0.00101559 -5.25909e-06)
(-1.66488e-05 0.00106428 -5.58395e-05)
(-3.50484e-05 0.00110351 -6.61163e-05)
(4.55321e-05 0.00109985 -1.55235e-05)
(3.87079e-07 0.00108779 -2.52701e-06)
(-3.62334e-05 0.00105617 -9.55521e-07)
(5.17064e-05 0.000997464 2.05245e-05)
(-7.02275e-06 0.00102487 -2.89284e-05)
(-5.89731e-05 0.000991197 2.95715e-06)
(-0.000112337 0.00107024 5.05652e-05)
(-0.00013254 0.00118559 -8.0577e-05)
(-4.53537e-05 0.00109823 -0.000103537)
(0.000129399 0.000996171 -2.60631e-05)
(3.26654e-05 0.00073827 0.000274383)
(9.90753e-05 0.00153543 0.00107947)
(-0.000899355 0.000662465 0.000278635)
(0.000115154 0.00110048 2.59225e-05)
(-0.000201749 0.000994959 -2.20733e-05)
(0.000289704 0.000941728 -0.000146065)
(0.000399819 0.00125575 -0.000104028)
(5.69105e-05 0.00107541 0.000382026)
(-0.00053906 0.000718995 1.83157e-05)
(0.000316757 0.00158416 -0.000242751)
(0.000246353 0.00142647 -4.17421e-05)
(-4.39823e-05 0.0010417 -1.4549e-05)
(-1.27683e-05 0.00105355 5.67178e-05)
(3.80929e-05 0.00104496 -4.89886e-05)
(0.000257833 0.00105169 -1.1216e-05)
(0.000191548 0.00104236 -1.70086e-05)
(-4.86218e-05 0.00122092 0.000225001)
(-0.000169236 0.000951726 0.000114133)
(0.000391532 0.00112651 0.00025062)
(0.000172136 0.00104262 0.000553218)
(-6.2418e-05 0.00111738 0.00028107)
(0.000361034 0.00121194 0.000250768)
(-0.000109286 0.000839802 -4.55912e-05)
(0.000294347 0.000587518 -3.38185e-05)
(4.89e-10 0.00108728 6.28766e-06)
(-0.000214135 0.0010733 0.00014466)
(3.52727e-05 0.00118604 -0.000120803)
(-0.000239951 0.000935979 0.000268646)
(8.809e-05 0.000848303 2.60381e-05)
(6.25661e-06 0.000840694 5.52772e-05)
(-8.82254e-05 0.00104617 -5.11573e-05)
(-2.13138e-05 0.0014365 3.12358e-05)
(0.000187915 0.000827122 3.65852e-05)
(-0.000303055 0.000883634 -4.95449e-05)
(-8.962e-06 0.00132178 5.81163e-06)
(-0.000115434 0.00120912 -5.23441e-05)
(-8.44003e-05 0.00107672 -8.73389e-06)
(-0.000121337 0.00103604 1.28389e-05)
(0.000150455 0.00115751 7.64432e-05)
(-8.44338e-05 0.00116423 4.74736e-05)
(-1.79515e-05 0.00134804 2.60716e-05)
(-0.000242209 0.000911042 -7.12658e-05)
(9.35921e-05 0.00104282 -0.000303268)
(5.07036e-05 0.000973087 -6.59526e-05)
(-0.000436687 0.00138679 -6.49857e-05)
(1.06925e-05 0.00104585 -6.3982e-05)
(-9.09103e-05 0.00110876 4.59357e-05)
(-7.24009e-05 0.00112021 5.62749e-05)
(-2.59801e-05 0.00107249 -0.000379878)
(-6.53837e-05 0.00102477 -0.000928824)
(0.000235153 0.000709267 0.000340643)
(-7.52572e-05 0.00106527 8.21334e-06)
(-5.48926e-05 0.00108839 -1.01758e-05)
(1.59994e-05 0.00106839 1.41459e-05)
(7.74295e-05 0.00106947 0.000166899)
(-8.21746e-05 0.00122144 5.80887e-05)
(0.000122621 0.00103793 -0.000120509)
(8.57778e-05 0.00116248 -4.11247e-05)
(-4.56865e-06 0.00110308 -2.76158e-05)
(-3.48739e-05 0.0010821 -1.10014e-05)
(-3.62381e-05 0.00117926 -6.05786e-06)
(1.30901e-05 0.00112484 -6.84349e-06)
(7.02822e-05 0.00105428 3.43321e-05)
(1.2214e-05 0.000967761 -5.25835e-06)
(7.45879e-05 0.00108537 5.53458e-05)
(-0.000119345 0.0010018 4.60991e-06)
(-0.000214409 0.00105069 1.46774e-06)
(-0.000111153 0.00104191 -5.42269e-05)
(0.000110089 0.000960861 0.000190762)
(0.000184183 0.00101857 0.00013532)
(-0.0005963 0.000867615 9.09599e-05)
(-0.000283438 0.00150561 -2.21792e-05)
(3.89392e-05 0.00102051 -3.05698e-05)
(-0.000204416 0.0006781 -0.000314564)
(5.87299e-06 0.000904739 -8.15807e-05)
(0.000467662 0.00119193 -3.19733e-05)
(-3.2358e-05 0.000603321 -0.000270535)
(0.000317508 0.000743654 -0.000513442)
(-0.000464374 0.000908431 -2.8544e-05)
(0.00015893 0.00157377 -2.65202e-05)
(-0.000385946 0.00122215 3.05707e-05)
(-0.00366343 0.00319788 0.000285145)
(-2.65259e-05 0.00103549 4.20407e-05)
(5.72421e-06 0.000996716 -4.76733e-05)
(-7.98515e-05 0.000987882 3.55307e-05)
(0.000394321 0.000696794 2.73049e-05)
(0.000400468 0.000979341 -4.48637e-05)
(-0.000157549 0.00105493 -5.89992e-05)
(0.000385054 0.00128456 -9.81561e-06)
(-5.03464e-05 0.00114919 0.000139652)
(-8.79905e-05 0.000295922 4.0326e-05)
(-4.86616e-05 0.000845959 -0.00013869)
(8.28356e-05 0.000974709 0.000210203)
(-0.000391486 0.00168993 -9.43298e-05)
(-1.07949e-05 0.00100395 0.000160449)
(-0.000265169 0.00119788 7.42548e-06)
(-0.000205764 0.00110524 6.84291e-06)
(-2.87786e-05 0.00122781 7.78727e-07)
(-6.95787e-05 0.00115443 2.85466e-05)
(0.000287196 0.00129387 -0.000306143)
(-8.54628e-05 0.000816346 0.000122671)
(-9.67967e-05 0.00103908 0.000167882)
(0.000180461 0.00107406 9.129e-05)
(-3.84636e-05 0.00105716 -1.47055e-05)
(-0.000140867 0.00104307 -4.08708e-05)
(-0.000104592 0.00122968 -0.000130739)
(3.936e-05 0.00105317 4.67427e-06)
(-1.57512e-05 0.00104272 2.00747e-05)
(0.000112254 0.00105015 3.92971e-05)
(-1.1746e-05 0.00123391 0.000235898)
(0.000101546 0.00124949 6.97341e-05)
(-0.000249671 0.00108194 0.000102215)
(-7.07983e-05 0.00107096 -0.000182801)
(4.07956e-05 0.000809731 -0.000454812)
(6.98993e-05 0.000309931 -3.44972e-05)
(-6.77434e-05 0.0011102 0.000157014)
(-8.93455e-05 0.00120151 -1.25502e-05)
(-0.000212935 0.00105436 -9.27263e-05)
(-1.94559e-05 0.00102396 -3.20884e-05)
(0.000363697 0.00111766 -7.47464e-05)
(5.62914e-05 0.00108842 5.48626e-05)
(-8.54912e-05 0.00118573 1.22133e-05)
(-0.000153591 0.0010927 -5.58352e-06)
(2.78967e-05 0.0010533 3.83013e-05)
(-6.27904e-05 0.00124042 -3.57383e-05)
(6.00101e-06 0.0012481 3.21379e-05)
(2.90037e-05 0.00101945 -2.46054e-05)
(3.74741e-05 0.00112643 1.28949e-05)
(-1.66435e-05 0.00109973 -2.96901e-05)
(-6.83785e-05 0.00115132 -1.80652e-05)
(-4.50402e-05 0.00108673 2.46247e-05)
(9.16e-05 0.00107391 9.42838e-06)
(3.42789e-05 0.00110636 1.1823e-05)
(-1.03725e-05 0.00107296 2.73323e-05)
(-8.44689e-05 0.00104188 -6.72505e-06)
(-0.000170012 0.000928227 4.17982e-05)
(-7.5713e-05 0.000957761 -7.55607e-05)
(2.53374e-05 0.000958737 -7.63528e-05)
(-8.13464e-06 0.00123917 0.000106101)
(0.000243805 0.00121485 5.01292e-05)
(-8.2343e-05 0.00147176 0.000183106)
(-9.61448e-05 0.00138431 9.32654e-06)
(0.000440356 0.0013493 -9.08046e-05)
(0.000147743 0.00113051 -2.72919e-06)
(0.000310641 0.000671189 -0.000383835)
(-7.2441e-05 0.000439473 -0.000316527)
(-0.000257078 0.000528272 0.00103793)
(0.000243616 0.000829233 -0.000603508)
(-0.000367015 0.0024187 0.00159051)
(-0.000774377 0.000384946 -0.000118735)
(0.000415401 0.00178756 -0.00033265)
(-0.000480609 0.000480063 6.78912e-06)
(4.11663e-05 0.00132154 1.41724e-05)
(-5.25961e-05 0.00107463 8.00907e-05)
(-4.6937e-05 0.00104398 -2.45369e-06)
(-7.83477e-05 0.00103848 -9.50687e-06)
(8.65692e-07 0.00107315 -1.03017e-05)
(0.000123657 0.00093862 -2.97855e-05)
(0.000117277 0.00174901 4.57535e-05)
(-4.52324e-05 0.000946982 0.000203331)
(-4.98477e-05 0.00104887 -8.55785e-05)
(0.000100134 0.000885419 3.16356e-05)
(1.10186e-05 0.00138634 0.000142407)
(-3.5576e-05 0.00142865 0.000197448)
(0.000100142 0.00127337 0.000189612)
(0.000145519 0.00123585 3.45763e-05)
(-0.000136395 0.00129816 -3.34139e-05)
(3.67231e-05 0.00106333 -2.09634e-05)
(5.65683e-05 0.00104741 -4.93962e-05)
(-0.000164523 0.00104449 -0.000124732)
(9.74923e-06 0.00142199 0.00012212)
(7.64834e-05 0.00136008 -0.000186157)
(0.000280738 0.00118048 -9.47078e-05)
(0.000181667 0.00128192 3.74249e-05)
(0.000110786 0.00123487 -1.39669e-05)
(-0.000220892 0.000970347 2.93703e-06)
(0.00011953 0.0011479 -2.24606e-05)
(0.000211875 0.000960084 -3.36101e-05)
(0.000117609 0.000935439 -0.000105554)
(7.62583e-05 0.00103418 6.50542e-05)
(-0.000130393 0.000901263 1.42427e-05)
(-3.29061e-05 0.00115126 9.93225e-05)
(-0.000131942 0.00123466 7.86478e-05)
(-0.000357158 0.00121948 -0.000304167)
(7.18159e-05 0.00135076 4.00653e-05)
(-3.59833e-05 0.00113974 -0.000190582)
(1.01709e-05 0.00120296 -0.000150993)
(-0.000175156 0.000937105 3.95562e-05)
(-0.000105206 0.00106648 8.36888e-06)
(0.000153758 0.00109653 2.72692e-05)
(-1.08165e-05 0.00116033 3.18091e-05)
(-0.000140122 0.00122604 0.000105241)
(-4.19161e-06 0.00122103 7.0042e-05)
(2.00536e-05 0.00110637 -9.81749e-06)
(-3.591e-05 0.00104714 9.5167e-06)
(0.000148757 0.00112348 1.44464e-05)
(7.06094e-05 0.00110591 3.7019e-06)
(-6.18304e-06 0.00103027 -4.64339e-05)
(7.31567e-06 0.00111084 3.77135e-05)
(-6.18988e-05 0.00112225 1.12322e-05)
(-0.000121145 0.00112395 -3.87722e-05)
(-8.15207e-05 0.00114849 -2.10177e-05)
(4.16929e-05 0.00108316 8.8906e-06)
(5.42606e-05 0.00109667 4.5708e-05)
(7.44111e-05 0.00114854 3.20438e-05)
(-4.78032e-05 0.00112236 4.58801e-05)
(-0.000173277 0.00101514 0.000101949)
(-6.63929e-05 0.000963381 -2.42011e-05)
(1.14866e-05 0.0011675 5.82536e-05)
(-6.14709e-05 0.0012224 0.000161843)
(0.000170091 0.00117081 -2.13049e-05)
(0.000104044 0.00114708 3.66165e-05)
(-3.41128e-05 0.00110211 0.000112156)
(-0.000166588 0.000990848 -0.000134778)
(4.38163e-05 0.00113308 -4.6713e-05)
(0.000282161 0.000959871 9.00522e-05)
(-0.000124982 0.000751027 0.000210334)
(0.00032082 0.00110634 -0.00101351)
(0.000394562 0.00180061 -0.00132312)
(-0.000113811 0.00165917 0.000348396)
(-3.29459e-05 0.00118288 7.96954e-06)
(0.000105991 0.00179291 -8.24821e-06)
(0.000321078 0.00156184 -0.000203771)
(0.000869141 0.000702696 -1.65905e-06)
(0.000103246 0.00115883 0.000111123)
(-3.58218e-06 0.00101494 -1.42293e-05)
(9.01912e-05 0.0012265 -4.65574e-05)
(8.94026e-06 0.00105335 5.14636e-05)
(-3.14543e-05 0.00106251 1.43494e-05)
(2.06185e-05 0.00107157 1.7671e-06)
(-0.000134573 0.00109103 0.000114261)
(-9.50471e-05 0.0010209 7.43442e-05)
(-1.06221e-06 0.00128631 -0.000110796)
(0.000136914 0.00115053 0.000134889)
(-6.80645e-05 0.00115052 0.000143174)
(8.98802e-05 0.00123419 6.65059e-05)
(-0.000236817 0.00135051 -7.39799e-05)
(-8.27086e-05 0.00112262 8.60838e-05)
(0.000381829 0.00102674 4.06005e-05)
(-4.65406e-05 0.000695088 -6.38161e-05)
(-0.000107868 0.000999973 1.31346e-05)
(-2.92939e-05 0.00109801 -0.00011189)
(-4.29461e-06 0.00100837 -0.000231602)
(0.00013342 0.00127161 8.52388e-05)
(-4.9745e-05 0.00107576 -5.73266e-05)
(-0.000166314 0.000856727 0.000285237)
(8.24502e-05 0.00108156 -4.41409e-05)
(0.000128594 0.000974111 -0.000109537)
(8.41549e-05 0.0012236 0.000283046)
(-1.46801e-06 0.00117476 0.000107193)
(1.69164e-05 0.000994409 0.000179249)
(0.000229543 0.000839881 -3.98848e-05)
(0.00024762 0.00115732 -0.000151356)
(0.000163938 0.000960292 2.81055e-05)
(-0.000242873 0.00102072 -9.72206e-05)
(-0.000289785 0.00116584 8.77355e-05)
(0.000233826 0.00148431 0.000623115)
(-0.000139556 0.00086021 0.000267056)
(-3.78022e-05 0.00117061 0.000107199)
(-0.000257299 0.00115215 1.88918e-05)
(5.98615e-05 0.00103721 6.92322e-05)
(-3.56815e-05 0.00119136 6.13533e-05)
(-0.000101659 0.00110623 -9.55969e-06)
(-0.000266663 0.00140895 -0.00018051)
(-4.05809e-05 0.00112542 7.74513e-05)
(1.79202e-05 0.00106264 -2.84274e-05)
(1.84213e-05 0.00110991 1.56497e-05)
(4.24418e-05 0.00104901 -2.44392e-05)
(2.61871e-05 0.00102996 -9.23845e-06)
(-2.45734e-05 0.000927544 -2.23926e-05)
(-9.83816e-05 0.00085345 -1.43749e-07)
(-0.000162934 0.000985739 4.65803e-05)
(-7.34954e-05 0.00108343 -8.1378e-05)
(5.04623e-05 0.00104939 -4.03623e-05)
(4.07536e-05 0.00104492 4.37368e-05)
(0.000112182 0.00101876 3.99918e-05)
(6.94624e-05 0.000988889 -4.99945e-05)
(5.45766e-05 0.00104159 5.28551e-06)
(1.28097e-05 0.00114313 -2.72651e-05)
(-4.36557e-05 0.00108768 1.81861e-05)
(9.8709e-06 0.000945735 6.29294e-05)
(0.000252505 0.00107808 1.46887e-06)
(0.00018168 0.00109894 -0.000130422)
(0.000147866 0.00113703 0.000158791)
(0.000206776 0.00131868 9.51701e-05)
(-6.12898e-05 0.00158376 0.000113757)
(-0.000261105 0.00107949 0.000485522)
(-0.000352878 0.000762527 0.0010471)
(-0.000442846 0.00140926 0.000398989)
(-9.58616e-05 0.000832966 -0.00147258)
(0.00035567 0.00141287 -0.000137732)
(0.000270341 0.000948343 7.23299e-05)
(0.000160838 0.00127435 -3.18283e-05)
(0.00011636 0.00128176 4.1257e-07)
(-0.000444814 0.000955847 1.61992e-05)
(-4.93361e-05 0.00104313 6.1931e-05)
(-5.09702e-05 0.00101155 5.39912e-05)
(-1.42714e-05 0.00100174 -3.75649e-05)
(5.09793e-05 0.000972598 3.13023e-05)
(-4.06528e-05 0.00104284 -1.01782e-05)
(-3.10291e-05 0.00096887 -0.000105187)
(2.18664e-05 0.00132656 -0.000223681)
(-8.6884e-05 0.0010205 -6.02056e-05)
(-5.94457e-05 0.00103574 -0.000104691)
(-7.21067e-05 0.00100696 2.3185e-05)
(-0.000133567 0.00088266 -3.54042e-05)
(-0.000156489 0.00100596 -4.5846e-05)
(-0.000250583 0.000963357 2.54924e-05)
(0.000150151 0.00137623 -0.000380322)
(0.000137657 0.00127613 -3.24125e-05)
(-5.17723e-05 0.000911203 6.97287e-05)
(0.000104541 0.000826027 8.81699e-05)
(1.01934e-05 0.00107875 0.000103323)
(-5.07712e-05 0.00106748 0.000123087)
(0.000133867 0.00106989 6.62275e-06)
(-0.000231248 0.00105159 8.27876e-05)
(-1.76163e-05 0.0010545 3.82762e-05)
(-0.000135457 0.000697643 -7.79985e-05)
(-0.000167958 0.001363 9.79982e-05)
(-2.95844e-05 0.00107387 -0.000276973)
(6.09526e-05 0.00100719 2.16382e-05)
(5.79027e-05 0.00100572 -0.000115955)
(-8.5304e-06 0.000938411 3.58947e-05)
(0.000165722 0.00111038 0.000334653)
(0.000202801 0.000682388 7.29464e-05)
(0.000310661 0.00146333 -0.000540973)
(-1.55693e-05 0.000962848 -2.11127e-05)
(0.00025034 0.00124782 8.0166e-05)
(-3.30473e-05 0.000775801 0.000958776)
(-2.01599e-05 0.00131338 0.000260421)
(-1.22905e-05 0.00111205 -0.000128692)
(3.90149e-05 0.00109532 5.81839e-05)
(0.000142186 0.00103874 1.05079e-05)
(2.46692e-05 0.0009521 2.51478e-05)
(-1.70398e-07 0.00112737 -0.000102163)
(9.18147e-05 0.000955237 -4.08385e-05)
(7.69858e-05 0.000947865 0.000105415)
(4.31776e-05 0.000925949 2.62974e-05)
(5.13886e-05 0.00103177 -4.91314e-05)
(4.12621e-06 0.000985927 -6.42773e-08)
(2.28901e-05 0.000975412 -1.65577e-05)
(-6.01722e-05 0.00102747 -2.00445e-05)
(-0.000116024 0.00100498 3.09614e-05)
(-6.10184e-05 0.00100659 -3.98185e-05)
(1.43468e-06 0.00104207 -7.7946e-05)
(3.94178e-05 0.00110334 4.3365e-06)
(0.000203793 0.00101543 3.87834e-05)
(0.000111292 0.000989548 -8.37036e-06)
(1.45367e-05 0.00104556 -3.62709e-05)
(-2.67366e-05 0.00102304 -2.1942e-05)
(3.294e-05 0.00102239 -1.7132e-05)
(-8.80629e-05 0.000925332 8.53375e-05)
(0.000234776 0.00105877 2.16836e-05)
(-0.000326951 0.00119773 -2.57852e-05)
(0.000237304 0.000954279 0.00018982)
(0.00020959 0.00106466 -9.92279e-05)
(-1.38142e-06 0.000960495 0.000143029)
(0.000336641 0.000946277 0.000274423)
(-0.000134898 0.000871924 0.000692591)
(-0.000299259 0.000639537 -0.000776425)
(-6.94813e-06 0.00147422 -0.000672007)
(0.000215572 0.00100589 3.88023e-06)
(5.93055e-05 0.000962862 1.40112e-05)
(0.000340304 0.00190836 -2.26739e-05)
(2.16408e-07 0.00118357 8.83562e-06)
(0.000385013 0.000491307 -4.63077e-07)
(-4.74651e-05 0.00111731 -8.77315e-05)
(-0.000198347 0.00124688 1.10071e-05)
(6.35981e-05 0.00105904 5.09932e-05)
(-2.70254e-05 0.00120715 -1.9374e-05)
(1.62363e-05 0.0007267 0.000112237)
(-0.000183159 0.00112572 -3.59377e-05)
(4.72188e-05 0.00104723 8.60804e-05)
(-0.000151141 0.00110874 -3.09933e-05)
(-0.000179382 0.00108308 -0.000109786)
(-0.00021166 0.00101827 -5.79759e-05)
(0.000357348 0.000778342 -1.13121e-05)
(0.000208105 0.00100299 -3.03349e-05)
(0.000251489 0.00137782 0.000180942)
(-7.63164e-05 0.000836029 0.000186814)
(0.000508448 0.000970707 -7.67082e-05)
(-0.000216651 0.000921328 -0.000147176)
(-0.0002056 0.00122711 -0.000102157)
(0.000341792 0.000875242 -1.67724e-05)
(0.000345616 0.00113477 0.000245712)
(-1.09746e-05 0.00110113 0.000134262)
(-4.19508e-05 0.00112862 2.71543e-05)
(-7.70531e-05 0.00104568 6.76299e-06)
(6.77234e-05 0.000997634 0.000268489)
(0.000144358 0.000829626 0.000130317)
(0.000139089 0.000927408 1.4864e-05)
(4.53998e-05 0.00124516 -0.000294734)
(-0.00011538 0.00112304 -2.85089e-05)
(-0.000159349 0.00117378 7.81537e-05)
(-0.000132264 0.0012844 4.98236e-05)
(0.000375563 0.00109073 0.000208029)
(-0.000763518 0.000921711 0.000135134)
(-0.00030554 0.00103844 0.000265442)
(-0.000112316 0.000642532 7.07635e-05)
(-0.000565275 0.00113102 -6.80027e-05)
(0.000190177 0.00108181 -2.17213e-05)
(0.000208999 0.00133832 -0.00018015)
(0.000407996 0.000973096 -2.71331e-05)
(-2.17931e-05 0.00112197 -9.06008e-05)
(5.38785e-05 0.000978208 7.73289e-05)
(8.83222e-05 0.00112888 -1.4125e-05)
(0.000123476 0.00120635 -4.97979e-05)
(-3.24764e-05 0.00105011 1.5139e-05)
(9.73717e-05 0.00114812 2.53248e-05)
(5.36598e-05 0.000990253 5.39436e-05)
(-5.42627e-05 0.00105412 -6.3363e-05)
(-2.07356e-05 0.00107119 -3.91785e-05)
(5.40601e-05 0.00110112 7.24057e-06)
(-2.39836e-05 0.00124054 2.63185e-05)
(-7.08849e-05 0.00108637 1.36294e-05)
(-3.45599e-06 0.00102922 1.46518e-05)
(3.65815e-05 0.00105513 6.83505e-05)
(7.1611e-05 0.00107607 6.76308e-06)
(7.659e-05 0.00105299 -2.11909e-05)
(-2.16521e-05 0.000997836 -4.62189e-05)
(9.40528e-05 0.000906589 -5.75303e-05)
(4.14298e-05 0.00098829 -5.71997e-07)
(-5.51457e-05 0.00116516 2.22858e-05)
(-7.65066e-05 0.00103305 -1.85003e-05)
(-0.000392526 0.000953961 2.48571e-05)
(0.000185265 0.00119722 2.48622e-05)
(-2.50139e-05 0.000979687 -0.000102309)
(-0.000282528 0.00106261 0.000102793)
(-2.26326e-05 0.00152293 0.000253091)
(5.89239e-05 0.00132135 0.000253024)
(-0.000307531 0.00118714 4.81687e-05)
(8.12669e-05 0.00101734 -0.000162651)
(0.000111104 0.00104994 -2.3213e-05)
(1.60439e-05 0.000840351 7.01316e-06)
(-3.4916e-05 0.00096085 6.08919e-06)
(-0.000365973 0.00152373 2.02593e-05)
(-2.34345e-05 0.000837528 -5.45068e-06)
(1.42209e-05 0.0011097 -3.90123e-05)
(0.000161064 0.00112781 -0.000111032)
(1.8566e-05 0.00103978 -8.1096e-05)
(-1.38646e-05 0.00107005 -0.000109449)
(6.62467e-05 0.00106337 3.82613e-05)
(-2.88976e-05 0.00103656 5.48749e-06)
(4.162e-05 0.00118343 -5.97694e-05)
(2.51245e-05 0.00105394 4.20051e-05)
(0.00017475 0.00105585 -0.000237308)
(-0.000203168 0.00114561 6.33009e-06)
(5.80913e-06 0.00137941 6.13727e-05)
(-0.000822765 -6.72747e-05 -0.000393441)
(0.000675423 0.0015139 -1.87965e-05)
(-0.000299688 0.000811979 0.000215223)
(9.93671e-06 0.00116784 0.000340991)
(-0.000186357 0.000844822 0.000495408)
(0.000171768 0.00131233 4.5131e-05)
(-0.000228612 0.00116078 1.12361e-05)
(-0.000119696 0.00101501 2.68446e-05)
(-4.56289e-05 0.00106161 -0.000151499)
(-7.95501e-05 0.000940743 1.94469e-05)
(-1.38202e-05 0.000959705 1.9053e-05)
(0.000198143 0.000975775 1.20868e-05)
(-6.69421e-05 0.000851436 6.47153e-05)
(0.000120194 0.00111428 1.40738e-05)
(7.53837e-05 0.00125986 -0.000182244)
(-0.000154316 0.0012204 -0.000115293)
(5.05137e-05 0.00151077 -0.000116293)
(-0.000222661 0.00145798 -7.39091e-05)
(0.000219097 0.000251277 0.00026184)
(-4.29589e-05 0.00184148 0.000149948)
(0.000188732 0.000823956 -0.000411561)
(4.16822e-05 0.000451201 -0.00030911)
(-0.000321208 0.00105811 -0.000186651)
(0.000382585 0.00127983 -7.97815e-05)
(-0.000287185 0.000307452 5.93159e-06)
(0.000150536 0.00129681 -4.84482e-05)
(-5.55062e-05 0.00108032 7.82072e-05)
(-5.44941e-05 0.00104855 -3.42419e-05)
(6.62311e-05 0.00105643 -6.4024e-05)
(8.01357e-05 0.00112138 -3.70798e-06)
(3.12962e-05 0.00106805 4.88365e-06)
(0.000115799 0.00105594 1.45693e-05)
(-0.000141825 0.000917846 -2.3486e-05)
(2.86811e-05 0.00107291 -8.65958e-05)
(-9.10412e-06 0.00104765 6.72443e-05)
(4.74468e-05 0.00110665 5.47428e-05)
(4.78285e-07 0.00118069 -1.40407e-05)
(-2.37818e-05 0.00102531 3.1172e-05)
(-1.50571e-05 0.00102869 0.000101818)
(-2.96537e-06 0.000998139 2.08056e-05)
(0.000103288 0.00108794 -4.00367e-05)
(-2.71744e-05 0.00105107 -4.23506e-05)
(4.62115e-05 0.00100494 -7.82276e-05)
(0.000128289 0.00119508 -6.09117e-05)
(-8.7435e-05 0.00121805 1.23525e-05)
(8.3984e-05 0.00123823 1.97515e-05)
(-2.4468e-05 0.00120663 0.000175869)
(-1.86958e-05 0.00117812 0.000130781)
(0.000101127 0.00115376 -0.00013595)
(1.00901e-06 0.00124861 -0.0001326)
(-0.000212741 0.00110443 -2.61545e-05)
(-9.08011e-05 0.00108972 -0.000107661)
(-0.000100079 0.00112391 -0.00014956)
(-1.98691e-05 0.000934909 0.000261505)
(-0.000116617 0.00134042 -1.59919e-05)
(-0.000364956 0.000991786 1.54029e-05)
(4.75117e-07 0.00110089 -2.95219e-05)
(3.18718e-05 0.000131425 -1.49474e-05)
(0.000291074 0.00100874 -6.04491e-06)
(0.000355497 0.00140066 0.00164819)
(8.80759e-05 0.00115547 6.24783e-05)
(-3.43528e-05 0.00115369 -8.11089e-05)
(-3.59619e-05 0.00112827 4.48885e-05)
(0.000129778 0.000960636 -1.02736e-05)
(1.70596e-05 0.0010743 -3.21932e-05)
(-4.4964e-05 0.00104377 -2.33633e-05)
(0.000100007 0.00105993 -2.1345e-05)
(-0.000105889 0.00111712 -0.000138546)
(-0.000253537 0.000752887 7.52946e-05)
(0.000878333 0.00231999 0.000140904)
(-0.000576614 0.000925513 -0.000145886)
(0.000441048 0.000985948 -1.64465e-05)
(-0.000312529 0.00163511 -9.15832e-05)
(0.000117252 0.00143266 0.000725954)
(-0.000683375 0.000178488 -0.000251884)
(-5.17438e-06 0.00138409 -0.000240187)
(0.000312217 0.00171812 -1.01591e-05)
(7.18954e-05 0.00118526 -0.000182906)
(1.02991e-05 0.00110198 2.24804e-05)
(2.04039e-06 0.00106253 -3.36439e-05)
(8.85276e-06 0.000978941 -5.15696e-05)
(-7.32656e-05 0.00097613 6.51561e-05)
(-5.28131e-05 0.00102006 3.62133e-05)
(-8.58839e-05 0.00124689 6.17179e-05)
(6.89711e-05 0.000751818 -3.33343e-05)
(5.60286e-05 0.00117845 -1.11168e-05)
(-0.000101842 0.00158236 1.92049e-05)
(0.000205136 0.000768312 -0.000130054)
(-0.000464353 0.000875174 -1.19023e-05)
(-0.00094386 0.00185947 -0.000183651)
(-4.33721e-05 0.000473382 8.0179e-05)
(-2.54292e-05 0.000994181 8.16266e-05)
(-0.000208979 0.0011991 -0.000130777)
(0.000205649 0.000665102 0.000153466)
(2.67931e-05 0.000905588 -3.16252e-05)
(7.29245e-05 0.00121308 4.53907e-05)
(-0.000108041 0.00104239 3.18713e-05)
(-4.65981e-05 0.00110892 3.4576e-05)
(9.08864e-06 0.00105157 7.98391e-06)
(6.21326e-05 0.000959609 2.13159e-05)
(2.61523e-05 0.00106956 -1.32767e-05)
(2.00519e-05 0.00104041 2.55647e-05)
(-3.76039e-05 0.0010757 -7.20693e-06)
(-4.75819e-06 0.00102855 4.16998e-05)
(-6.28272e-05 0.00102102 -4.57567e-05)
(5.45326e-06 0.00103547 3.78674e-05)
(-5.44577e-05 0.00106174 -3.65311e-05)
(-4.49775e-05 0.00103187 8.47071e-06)
(-7.13206e-05 0.00102014 6.57983e-05)
(-2.50776e-05 0.00113018 -8.5954e-06)
(-8.54936e-05 0.00129894 3.03745e-06)
(2.34445e-05 0.00125823 2.8474e-05)
(-4.88065e-05 0.00129764 4.06104e-05)
(-7.69933e-05 0.00109397 0.000337781)
(5.52597e-05 0.00110083 5.83899e-05)
(8.1576e-05 0.00120446 -1.85997e-05)
(-0.000222506 0.000834917 -2.58533e-05)
(0.000155027 0.0012584 -0.000160924)
(2.65194e-05 0.000927984 -0.000537278)
(-1.15553e-05 0.000974493 -0.000407595)
(0.000158307 0.00101204 0.000232759)
(8.18035e-05 0.000964123 0.000305485)
(-0.000118242 0.00121662 0.00015942)
(-0.000364881 0.00131776 0.000131545)
(-0.000262102 0.00165675 7.97667e-05)
(-0.00019541 0.00137944 1.00194e-05)
(4.57328e-05 0.000882388 1.51523e-05)
(0.000186371 0.0007194 1.39514e-06)
(1.8012e-05 0.00108193 -3.28202e-06)
(1.39601e-05 0.00108467 -3.45751e-06)
(2.30471e-05 0.000965701 3.86889e-05)
(0.000121074 0.0011565 -1.82561e-05)
(1.21774e-05 0.00106474 7.07599e-06)
(-4.97836e-05 0.00104842 -4.2208e-05)
(3.78094e-07 0.00105816 -7.81975e-05)
(4.0858e-05 0.0010396 2.42571e-05)
(-4.60735e-05 0.00101142 -4.41815e-05)
(2.18659e-05 0.00100211 -2.575e-05)
(-4.45012e-06 0.00108452 -3.35838e-05)
(-0.000117483 0.00122556 -1.44166e-05)
(-8.10232e-05 0.00113781 3.69654e-05)
(-5.326e-05 0.00112097 0.000110981)
(-0.000101501 0.00102459 -0.000191316)
(3.76036e-06 0.000977602 9.03131e-05)
(-0.000191733 0.000792932 6.24449e-05)
(-1.43275e-06 0.000962948 -7.54753e-06)
(-9.56895e-05 0.000722541 -0.000104364)
(-0.000228435 0.00096146 0.000107896)
(0.000168138 0.000970939 0.000145871)
(0.000722253 0.000833979 0.000230815)
(-0.000513298 0.00173327 0.000748006)
(-9.33693e-05 0.00107116 0.00110027)
(-0.000195722 0.00095189 0.00027874)
(-0.000260882 0.000888521 2.98695e-05)
(0.00050479 0.00137141 -8.45073e-06)
(0.000177655 0.00111686 -2.16441e-06)
(-2.53025e-06 0.00106426 5.25605e-06)
(3.18018e-05 0.00108603 -8.4339e-07)
(-8.3594e-06 0.0010415 -6.02704e-05)
(2.28641e-05 0.00104142 -7.75721e-06)
(-1.68027e-06 0.00112596 -2.82901e-06)