/*--------------------------------*- C++ -*----------------------------------*\
  =========                 |
  \\      /  F ield         | OpenFOAM: The Open Source CFD Toolbox
   \\    /   O peration     | Website:  https://openfoam.org
    \\  /    A nd           | Version:  10
     \\/     M anipulation  |
\*---------------------------------------------------------------------------*/
FoamFile
{
    format      ascii;
    class       IOPosition;
    location    "0/lagrangian/cloud";
    object      positions;
}
// * * * * * * * * * * * * * * * * * * * * * * * * * * * * * * * * * * * * * //

3300
(
(0.33908 0.31433 0.276141 0.0704491) 384 777 1
(0.479694 0.110908 0.24402 0.165377) 408 3001 2
(0.479882 0.243923 0.15528 0.120915) 432 3002 1
(0.0915133 0.465864 0.321744 0.120879) 456 871 1
(0.479872 0.0244189 0.247193 0.248517) 456 3003 2
(0.525874 0.220925 0.0710047 0.182196) 480 3004 1
(0.310013 0.328852 0.0849841 0.276152) 504 965 1
(0.269456 0.381418 0.243933 0.105192) 504 1012 1
(0.479788 0.18465 0.276274 0.0592889) 528 3006 2
(0.247149 0.202231 0.360268 0.190352) 528 1059 2
(0.550112 0.241079 0.199959 0.00884942) 552 3007 1
(0.0145241 0.50887 0.243875 0.232731) 552 1106 1
(0.479792 0.0570168 0.275875 0.187315) 576 3008 2
(0.479968 0.27615 0.0643671 0.179516) 600 3009 1
(0.245658 0.364196 0.185135 0.205011) 624 1200 1
(0.460044 0.286127 0.0843518 0.169478) 624 1246 2
(0.0301767 0.373811 0.472915 0.123098) 624 1247 2
(0.479862 0.243932 0.0812864 0.194919) 648 3011 1
(0.113185 0.368465 0.437053 0.081297) 648 1294 2
(0.479912 0.276183 0.0316312 0.212273) 672 3012 1
(0.295671 0.336022 0.189057 0.17925) 696 1341 1
(0.302733 0.364776 0.225143 0.107349) 696 1388 1
(0.479882 0.20164 0.276203 0.0422751) 720 3014 2
(0.31228 0.344933 0.0150742 0.327712) 744 1435 2
(0.47994 0.00554269 0.249096 0.265421) 744 3015 2
(0.736827 0.147719 0.113429 0.0020238) 768 1482 1
(0.112207 0.427756 0.305595 0.154443) 792 1529 1
(0.479909 0.0169129 0.243903 0.259276) 792 3017 2
(0.494839 0.0327443 0.236462 0.235955) 792 1576 2
(0.527141 0.252572 0.0308573 0.18943) 816 3018 1
(0.324948 0.321583 0.0775125 0.275957) 840 1623 1
(0.253781 0.373896 0.259238 0.113085) 840 1670 1
(0.448258 0.118631 0.14236 0.290751) 864 1670 2
(0.479988 0.176132 0.258776 0.0851038) 864 3020 2
(0.870742 0.0519724 0.0243799 0.0529059) 1368 2657 2
(0.482226 0.242714 0.0235544 0.251506) 1368 2 2
(0.479786 0.1952 0.276251 0.0487627) 0 2984 2
(0.479946 0.243877 0.232975 0.0432013) 24 2985 1
(0.270014 0.155891 0.225254 0.348841) 24 1 2
(0.320106 0.189629 0.323775 0.166491) 24 72 2
(0.414837 0.276428 0.0325136 0.276221) 48 72 1
(0.180488 0.425905 0.27509 0.118518) 49 118 2
(0.661373 0.119959 0.0331667 0.185502) 48 118 1
(0.164594 0.430408 0.247444 0.157554) 48 119 1
(0.518358 0.0803425 0.176663 0.224637) 72 119 2
(0.0923833 0.39335 0.43764 0.0766262) 72 166 2
(0.479712 0.243993 0.0344822 0.241813) 96 2988 1
(0.383785 0.324257 0.0486783 0.24328) 120 213 1
(0.195792 0.385918 0.276325 0.141964) 120 260 1
(0.479833 0.147253 0.270518 0.102396) 144 2990 2
(0.0263462 0.339141 0.470664 0.163849) 144 307 2
(0.479824 0.276228 0.12259 0.121357) 168 2991 1
(0.142746 0.412468 0.168564 0.276222) 192 354 1
(0.462562 0.284875 0.153517 0.0990457) 192 401 1
(0.43114 0.0809953 0.219587 0.268277) 216 401 2
(0.479929 0.243885 0.0499876 0.226198) 216 2993 1
(0.353088 0.328109 0.0639225 0.254881) 240 448 1
(0.225862 0.403231 0.243914 0.126994) 240 495 1
(0.479914 0.162834 0.2762 0.0810522) 264 2995 2
(0.479827 0.260308 0.192045 0.0678203) 288 2996 1
(0.0307059 0.500792 0.267137 0.201365) 312 589 1
(0.479909 0.0372387 0.276183 0.20667) 312 2997 2
(0.479861 0.27621 0.0508463 0.193083) 336 2998 1
(0.155315 0.406192 0.363417 0.0750756) 360 683 1
(0.479837 0.0372648 0.276092 0.206807) 360 2999 2
(0.552992 0.183231 0.05642 0.207357) 384 730 2
(0.287425 0.0455578 0.29457 0.372447) 384 776 1
(0.587247 0.190215 0.191978 0.0305599) 408 823 2
(0.391452 0.0978583 0.222581 0.288109) 432 824 2
(0.239612 0.0461045 0.396355 0.317928) 432 871 2
(0.588656 0.141215 0.080615 0.189514) 456 917 1
(0.339591 0.314069 0.0806569 0.265683) 480 964 2
(0.134372 0.236919 0.444767 0.183941) 480 965 2
(0.582187 0.00112188 0.224707 0.191984) 504 1012 2
(0.14341 0.442463 0.0077536 0.406374) 529 1058 2
(0.211396 0.410463 0.296941 0.0812005) 553 1105 2
(0.58177 0.121835 0.099414 0.196981) 552 1105 1
(0.591693 0.0302762 0.15775 0.22028) 576 1106 2
(0.122613 0.28445 0.13809 0.454847) 600 1153 2
(0.142292 0.284654 0.128048 0.445006) 600 1199 1
(0.383337 0.324468 0.0663884 0.225806) 625 1202 1
(0.165595 0.063882 0.401079 0.369444) 625 1246 1
(0.0560466 0.427447 0.0283887 0.488117) 648 1293 1
(0.0882553 0.47202 0.331463 0.108262) 672 1340 2
(0.091864 0.437921 0.442857 0.0273585) 697 1387 2
(0.571437 0.127276 0.0708759 0.230412) 696 1387 1
(0.592223 0.0181557 0.201866 0.187756) 720 1388 2
(0.0446492 0.461531 0.09077 0.40305) 744 1481 2
(0.459955 0.0292164 0.257452 0.253377) 744 1482 2
(0.0111016 0.492168 0.139428 0.357302) 769 1528 2
(0.0664847 0.125325 0.329278 0.478913) 792 1529 2
(0.381056 0.193553 0.325611 0.0997805) 793 1575 1
(0.427874 0.269982 0.190333 0.111811) 817 1622 2
(0.513272 0.238211 0.208938 0.0395792) 816 1622 2
(0.63031 0.170784 0.114128 0.0847771) 840 1669 2
(0.13628 0.0748833 0.430663 0.358174) 841 1669 1
(0.131232 0.336795 0.450397 0.0815751) 865 1716 1
(0.0616434 0.283719 0.198063 0.456574) 888 1717 2
(0.479934 0.246328 0.21912 0.0546189) 888 3021 1
(0.0257386 0.471667 0.16743 0.335165) 888 1764 1
(0.372673 0.298197 0.10418 0.224951) 936 1857 2
(0.613604 0.177341 0.112891 0.0961633) 912 1811 1
(0.128361 0.419943 0.242077 0.209618) 913 1766 1
(0.101094 0.277132 0.465475 0.156299) 913 1810 1
(0.29671 0.336128 0.258639 0.108523) 937 1813 1
(0.266739 0.334665 0.0481055 0.350491) 1368 2657 2
(0.479537 0.244083 0.153463 0.122917) 1369 5 2
(0.137067 0.415281 0.150282 0.297369) 1 5 2
(0.580008 0.226177 0.134823 0.0589929) 0 0 2
(0.261528 0.102384 0.353104 0.282983) 1 0 1
(0.280486 0.320814 0.0257685 0.372931) 25 4 2
(0.241863 0.37952 0.362943 0.0156736) 25 71 1
(0.251088 0.346269 0.390586 0.0120569) 25 74 2
(0.831709 0.0679825 0.0115622 0.0887463) 49 121 1
(0.161259 0.433066 0.404498 0.00117648) 49 121 1
(0.136304 0.298784 0.448015 0.116898) 73 165 1
(0.502272 0.259256 0.200035 0.0384371) 97 212 2
(0.547625 0.106174 0.103842 0.242359) 96 212 1
(0.57625 0.228028 0.0418436 0.153878) 120 259 2
(0.254348 0.182708 0.389019 0.173925) 121 259 1
(0.0812962 0.249248 0.226297 0.443159) 144 260 2
(0.0667696 0.401626 0.482792 0.0488125) 145 306 1
(0.151321 0.408165 0.0690139 0.371501) 145 309 1
(0.122552 0.430873 0.160926 0.285648) 169 353 2
(0.478843 0.0893528 0.244464 0.18734) 168 354 2
(0.475664 0.272304 0.220658 0.031374) 192 400 2
(0.362265 0.302722 0.236595 0.0984185) 217 447 2
(0.190975 0.044117 0.344246 0.420662) 216 447 1
(0.687385 0.12244 0.0446363 0.145538) 240 494 1
(0.400731 0.315227 0.0118559 0.272186) 264 541 2
(0.0954505 0.29691 0.436126 0.171513) 264 542 2
(0.603636 0.0380927 0.176246 0.182025) 288 588 1
(0.0307137 0.468498 0.0981393 0.402649) 313 591 1
(0.604344 0.181675 0.0683999 0.145581) 312 635 2
(0.156148 0.266209 0.17186 0.405783) 336 636 2
(0.286522 0.133397 0.239498 0.340583) 336 682 1
(0.410589 0.309742 0.273191 0.00647865) 361 729 2
(0.481069 0.150154 0.0931523 0.275625) 360 729 1
(0.114494 0.458932 0.31782 0.108754) 385 776 2
(0.0876723 0.440016 0.190082 0.282229) 385 779 1
(0.351683 0.193405 0.31645 0.138462) 409 823 1
(0.352403 0.33995 0.142502 0.165146) 433 870 2
(0.05199 0.457853 0.277762 0.212395) 457 873 1
(0.49155 0.100341 0.238097 0.170012) 457 920 2
(0.350143 0.114456 0.341092 0.194309) 457 917 1
(0.599451 0.216441 0.0877466 0.0963615) 481 964 2
(0.156485 0.437901 0.0872551 0.318358) 505 967 1
(0.369422 0.0274866 0.331452 0.271639) 505 1011 1
(0.534845 0.19416 0.054571 0.216424) 529 1014 2
(0.0478409 0.401775 0.460353 0.090031) 529 1061 2
(0.668535 0.149558 0.0564508 0.125456) 553 1108 1
(0.577883 0.194903 0.186392 0.0408223) 577 1152 2
(0.00158138 0.515391 0.131241 0.351786) 601 1155 1
(0.891426 0.0163361 0.0704448 0.0217931) 601 1199 1
(0.0536592 0.179313 0.277703 0.489325) 625 1202 2
(0.609839 0.0635985 0.17893 0.147632) 625 1249 2
(0.681438 0.143133 0.0910174 0.0844115) 649 1249 1
(0.0941517 0.466369 0.334354 0.105126) 673 1296 1
(0.577171 0.148382 0.0791833 0.195263) 673 1342 1
(0.427794 0.266699 0.0032581 0.30225) 697 1343 2
(0.402344 0.0535049 0.282683 0.261468) 697 1387 1
(0.307857 0.362215 0.0313584 0.298569) 721 1434 2
(0.223287 0.383132 0.348475 0.045107) 745 1437 1
(0.439302 0.0536124 0.296496 0.21059) 745 1481 1
(0.569374 0.198882 0.0325835 0.19916) 769 1484 2
(0.139731 0.414 0.199795 0.246474) 769 1531 1
(0.689962 0.171163 0.0881879 0.0506866) 793 1577 2
(0.285986 0.179237 0.170008 0.364769) 817 1578 2
(0.340269 0.277631 0.344071 0.0380287) 817 1625 2
(0.00548543 0.513197 0.0657424 0.415575) 841 1625 1
(0.929217 0.0393051 0.0192564 0.0122218) 841 1672 2
(0.491427 0.258822 0.236793 0.0129582) 865 1672 1
(0.24906 0.22196 0.137437 0.391542) 865 1718 1
(0.0114188 0.48761 0.452893 0.0480788) 889 1719 1
(0.156691 0.437691 0.0448452 0.360774) 889 1763 2
(0.0960099 0.165884 0.272407 0.4657) 913 1766 2
(0.849829 0.0640766 0.0233951 0.0626997) 1344 2656 1
(0.351115 0.2728 0.340586 0.0354993) 1344 2657 2
(0.810271 0.0787103 0.0678366 0.0431821) 1369 2703 2
(0.11222 0.460034 0.401053 0.0266933) 2 3 2
(0.747099 0.142664 0.0681547 0.0420819) 1 3 2
(0.0611122 0.146251 0.485612 0.307024) 2 3 1
(0.110312 0.422599 0.00608212 0.461008) 25 73 1
(0.136967 0.415375 0.191177 0.256481) 49 120 2
(0.0600467 0.0537895 0.486115 0.400049) 49 121 2
(0.588081 0.21645 0.0056956 0.189774) 73 121 2
(0.099285 0.277747 0.466534 0.156434) 73 168 2
(0.673566 0.00271794 0.17666 0.147056) 97 214 1
(0.0391221 0.496622 0.344541 0.119716) 97 215 1
(0.700477 0.101063 0.0325363 0.165923) 121 215 2
(0.204407 0.0601016 0.321592 0.413899) 121 261 1
(0.428669 0.301854 0.236176 0.0333016) 145 262 1
(0.251882 0.326666 0.031213 0.390239) 145 308 1
(0.259325 0.386549 0.128012 0.226114) 169 355 2
(0.638823 0.164448 0.0311553 0.165573) 169 356 1
(0.453204 0.289512 0.204782 0.0525028) 193 400 2
(0.167106 0.323077 0.400305 0.109512) 193 403 2
(0.270841 0.36177 0.0156005 0.351788) 217 449 1
(0.267876 0.36933 0.0446841 0.318109) 217 450 1
(0.269585 0.349066 0.0322684 0.349081) 241 494 2
(0.250182 0.358763 0.220578 0.170476) 265 497 1
(0.229343 0.137346 0.401471 0.231839) 265 541 1
(0.675412 0.178433 0.0964525 0.0497027) 289 588 2
(0.113132 0.299454 0.459587 0.127827) 289 591 2
(0.830325 0.0168339 0.100974 0.0518677) 313 635 1
(0.267309 0.382479 0.340871 0.00934185) 337 682 2
(0.778498 0.094647 0.0214057 0.105449) 337 685 1
(0.473581 0.247043 0.00528904 0.274087) 361 731 2
(0.391654 0.288007 0.0463195 0.27402) 361 732 1
(0.670946 0.180691 0.117626 0.0307376) 385 778 2
(0.278427 0.071197 0.305745 0.344631) 409 779 2
(0.372659 0.17437 0.329821 0.12315) 409 826 2
(0.714351 0.11904 0.0399359 0.126673) 433 872 1
(0.223825 0.371948 0.0223451 0.381882) 457 919 2
(0.292258 0.120739 0.337735 0.249267) 458 919 1
(0.0869493 0.472635 0.342602 0.0978141) 481 966 2
(0.182448 0.277152 0.424929 0.11547) 481 967 2
(0.0804448 0.475926 0.386465 0.0571645) 505 1013 2
(0.0194499 0.506419 0.350416 0.123715) 530 1060 2
(0.0905408 0.113043 0.470878 0.325538) 530 1060 1
(0.138681 0.39941 0.047408 0.414502) 553 1107 1
(0.405354 0.0238334 0.289643 0.28117) 577 1108 2
(0.265619 0.263768 0.3512 0.119413) 577 1155 2
(0.0897246 0.439006 0.30541 0.165859) 601 1201 2
(0.206017 0.392814 0.238557 0.162612) 602 1204 1
(0.207608 0.327354 0.380041 0.0849963) 626 1248 1
(0.117593 0.431405 0.178843 0.272159) 649 1295 2
(0.442581 0.29436 0.232212 0.0308466) 650 1298 1
(0.376409 0.312832 0.01601 0.294748) 674 1342 2
(0.0072292 0.480235 0.130746 0.38179) 697 1389 2
(0.391191 0.0191016 0.301448 0.288259) 697 1389 1
(0.732779 0.117464 0.0826938 0.0670626) 721 1436 2
(0.0157787 0.0492968 0.475974 0.45895) 721 1437 2
(0.521308 0.214683 0.223205 0.0408036) 746 1483 1
(0.0407848 0.463458 0.0798211 0.415936) 769 1530 2
(0.289576 0.0676311 0.273873 0.368921) 769 1530 1
(0.359353 0.335741 0.0755701 0.229335) 794 1533 1
(0.233565 0.369738 0.324993 0.0717042) 794 1580 1
(0.12401 0.369121 0.454127 0.0527429) 818 1624 1
(0.12633 0.420695 0.191844 0.261131) 841 1671 2
(0.027316 0.024304 0.449422 0.498958) 841 1671 1
(0.678174 0.166775 0.0237417 0.131309) 866 1718 2
(0.357931 0.337129 0.197509 0.107432) 890 1721 1
(0.175688 0.400472 0.274295 0.149545) 889 1765 2
(0.270495 0.348654 0.264593 0.116258) 890 1768 1
(0.295199 0.10049 0.235993 0.368318) 913 1812 1
(0.0875037 0.129759 0.31172 0.471017) 912 1764 2
(0.416489 0.188061 0.0875427 0.307907) 1344 2610 2
(0.352123 0.286747 0.34007 0.02106) 1345 2659 2
(0.266618 0.350554 0.317905 0.0649234) 1369 2659 1
(0.416042 0.0448811 0.275816 0.263261) 1370 2704 1
(0.904003 0.0318325 0.0324159 0.0317488) 2 3 2
(0.416649 0.275505 0.225164 0.0826823) 26 7 1
(0.185726 0.423303 0.135982 0.25499) 26 76 1
(0.494594 0.268869 0.0411145 0.195422) 50 122 2
(0.621784 0.172937 0.159275 0.0460039) 50 123 1
(0.61439 0.208949 0.0884121 0.0882494) 74 167 2
(0.129345 0.451487 0.0812539 0.337914) 98 170 1
(0.124297 0.31194 0.139106 0.424656) 98 170 2
(0.627118 0.170286 0.138617 0.0639791) 98 217 1
(0.025124 0.487828 0.351865 0.135183) 122 261 2
(0.608425 0.0817232 0.130228 0.179625) 122 217 2
(0.160853 0.435726 0.109625 0.293795) 122 264 1
(0.701415 0.0204983 0.165455 0.112632) 146 308 1
(0.624638 0.203832 0.168074 0.0034562) 170 311 1
(0.30579 0.0161417 0.363297 0.314772) 170 355 1
(0.46446 0.283911 0.0221269 0.229502) 193 402 2
(0.200694 0.133169 0.410463 0.255674) 194 402 1
(0.666708 0.0128538 0.182803 0.137636) 218 449 1
(0.0846788 0.450651 0.2884 0.17627) 242 496 2
(0.773813 0.0775687 0.0516762 0.0969419) 241 496 1
(0.338111 0.000495373 0.346606 0.314788) 265 497 2
(0.426269 0.193017 0.303015 0.0776994) 265 544 2
(0.20875 0.411792 0.234513 0.144945) 289 590 2
(0.387193 0.322525 0.226795 0.0634873) 290 593 1
(0.0107878 0.478492 0.104949 0.405771) 314 637 2
(0.0709879 0.18822 0.287473 0.453319) 337 638 2
(0.045597 0.332056 0.461012 0.161335) 338 684 1
(0.506556 0.230567 0.248165 0.0147108) 362 731 2
(0.0129227 0.128293 0.381218 0.477566) 361 731 1
(0.255885 0.236199 0.388223 0.119693) 386 778 1
(0.440988 0.295672 0.191195 0.0721446) 410 781 1
(0.23741 0.0985766 0.39747 0.266544) 410 825 1
(0.244377 0.384939 0.361633 0.00905103) 434 872 1
(0.205921 0.380873 0.264619 0.148586) 458 875 1
(0.662401 0.01281 0.148022 0.176767) 458 921 1
(0.576668 0.216468 0.161445 0.0454198) 482 922 1
(0.0458287 0.493221 0.15243 0.308521) 482 969 1
(0.567701 0.200015 0.118255 0.114029) 506 1016 1
(0.883511 0.0420834 0.00013441 0.0742716) 530 1016 1
(0.419997 0.283001 0.24576 0.0512421) 554 1063 1
(0.0343088 0.466694 0.215335 0.283663) 554 1110 1
(0.284464 0.20049 0.34162 0.173426) 578 1154 1
(0.456732 0.287781 0.199368 0.0561195) 602 1157 1
(0.459774 0.0323004 0.286254 0.221671) 602 1204 2
(0.849001 0.0593655 0.0151019 0.0765317) 626 1250 2
(0.220264 0.37372 0.304134 0.101882) 650 1251 1
(0.551605 0.0714855 0.136573 0.240336) 650 1297 1
(0.679139 0.176575 0.0170516 0.127234) 674 1344 2
(0.05102 0.476308 0.0143216 0.45835) 698 1345 2
(0.612136 0.0171057 0.177794 0.192964) 698 1389 1
(0.228279 0.390041 0.167628 0.214053) 722 1436 2
(0.278413 0.376932 0.0519308 0.292724) 722 1439 1
(0.297245 0.335241 0.0567372 0.310776) 746 1485 2
(0.261376 0.18888 0.360773 0.188971) 746 1486 2
(0.76592 0.132494 0.100894 0.000692308) 770 1530 1
(0.0144663 0.274734 0.508908 0.201891) 770 1533 2
(0.44251 0.0809988 0.18951 0.286981) 794 1579 1
(0.662269 0.107811 0.0669533 0.162966) 818 1580 2
(0.144838 0.443708 0.327957 0.0834969) 842 1627 1
(0.441825 0.263069 0.065865 0.229242) 842 1674 1
(0.393455 0.319242 0.0931489 0.194153) 866 1720 2
(0.00412514 0.15257 0.482958 0.360347) 866 1721 2
(0.569338 0.0335512 0.165682 0.231429) 890 1767 1
(0.0451347 0.461568 0.288004 0.205293) 915 1814 2
(0.821684 0.0303987 0.0427229 0.105195) 914 1768 2
(0.0186375 0.476467 0.290492 0.214403) 938 1815 1
(0.772741 0.0665075 0.0310374 0.129714) 938 1861 1
(0.637936 0.166003 0.0891659 0.106895) 1320 2609 2
(0.56561 0.0778608 0.230204 0.126325) 1320 2610 2
(0.904887 0.0636925 0.0295398 0.00188068) 1345 2658 2
(0.563542 0.234359 0.0468642 0.155234) 1370 2704 2
(0.251773 0.00768815 0.350273 0.390267) 2 8 1
(0.130403 0.105383 0.315817 0.448397) 2 6 1
(0.324218 0.248555 0.105506 0.321721) 26 75 1
(0.577206 0.227569 0.137229 0.0579964) 27 75 2
(0.0964171 0.435629 0.155798 0.312156) 51 78 1
(0.141783 0.109157 0.412943 0.336116) 51 122 1
(0.425938 0.278678 0.179844 0.115541) 74 169 2
(0.604363 0.181628 0.0743552 0.139654) 75 169 2
(0.199578 0.416379 0.0220141 0.36203) 99 172 1
(0.285179 0.165176 0.176063 0.373582) 98 216 1
(0.309167 0.36157 0.066901 0.262362) 123 219 1
(0.0437554 0.211509 0.250465 0.494271) 122 263 1
(0.376312 0.327955 0.244806 0.0509276) 146 310 2
(0.111705 0.460318 0.0742498 0.353727) 170 357 2
(0.352073 0.0107376 0.30779 0.3294) 170 358 2
(0.684949 0.14134 0.143098 0.0306129) 194 358 1
(0.0797437 0.385675 0.0906485 0.443933) 218 405 2
(0.373674 0.157476 0.150617 0.318233) 218 451 1
(0.541076 0.157637 0.0556735 0.245614) 242 452 2
(0.328863 0.33058 0.224324 0.116234) 242 499 1
(0.824975 0.0713586 0.0842424 0.0194242) 266 545 2
(0.264457 0.146654 0.383932 0.204958) 266 543 1
(0.391719 0.30142 0.0188651 0.287996) 290 546 2
(0.384881 0.0572795 0.291381 0.266459) 290 593 2
(0.83208 0.067803 0.0871876 0.0129294) 314 593 1
(0.0495936 0.45904 0.2312 0.260166) 338 640 1
(0.732046 0.131303 0.117833 0.0188173) 338 687 2
(0.513498 0.00993844 0.21717 0.259394) 362 687 2
(0.244719 0.362722 0.0151187 0.37744) 362 734 1
(0.789153 0.0350251 0.0865374 0.0892849) 386 780 1
(0.0956717 0.436016 0.0132706 0.455042) 410 827 2
(0.482294 0.0476845 0.227315 0.242706) 410 827 1
(0.758194 0.0252689 0.0794867 0.137051) 434 828 2
(0.0209625 0.148179 0.505667 0.325192) 434 875 2
(0.286589 0.315424 0.340547 0.0574404) 459 921 1
(0.0560127 0.488151 0.178405 0.277431) 482 968 2
(0.254727 0.0667635 0.38879 0.289719) 482 969 2
(0.263553 0.291388 0.0929797 0.352079) 506 1015 1
(0.180796 0.425759 0.194442 0.199003) 530 1062 2
(0.00879356 0.08236 0.479471 0.429376) 530 1063 2
(0.473192 0.0063811 0.247263 0.273163) 554 1110 2
(0.773754 0.0907554 0.00621614 0.129274) 578 1156 1
(0.185749 0.00825389 0.415012 0.390984) 602 1157 2
(0.417864 0.155938 0.290646 0.135552) 603 1203 1
(0.0962885 0.435703 0.204015 0.263994) 627 1250 2
(0.037572 0.0949842 0.497353 0.370091) 626 1251 2
(0.39167 0.280462 0.288049 0.0398188) 651 1297 1
(0.317646 0.325045 0.284153 0.0731564) 675 1344 2
(0.0455215 0.0872768 0.373819 0.493383) 674 1344 1
(0.368763 0.256883 0.0748757 0.299478) 698 1391 1
(0.419042 0.167159 0.107174 0.306624) 722 1392 2
(0.086298 0.402986 0.472992 0.0377237) 723 1438 1
(0.189026 0.421624 0.259772 0.129578) 747 1441 1
(0.32492 0.0915241 0.321395 0.262161) 747 1485 1
(0.0128244 0.477445 0.404444 0.105287) 770 1532 2
(0.109912 0.461185 0.140886 0.288017) 795 1535 1
(0.582335 0.224977 0.100062 0.0926257) 795 1582 1
(0.15376 0.406969 0.261484 0.177786) 819 1626 2
(0.217028 0.0269974 0.375347 0.380627) 818 1627 2
(0.171816 0.315684 0.114259 0.39824) 842 1673 1
(0.172321 0.399138 0.17668 0.251861) 867 1676 1
(0.412177 0.291651 0.195604 0.100567) 867 1723 1
(0.38944 0.294239 0.0260284 0.290293) 891 1767 2
(0.0975115 0.43663 0.438298 0.027561) 915 1770 1
(0.485952 0.22978 0.268806 0.0154609) 915 1817 2
(0.171669 0.0165102 0.423456 0.388365) 914 1815 2
(0.186985 0.343401 0.422635 0.0469791) 939 1861 1
(0.410226 0.0535579 0.311025 0.225191) 1296 2563 2
(0.212105 0.17906 0.231054 0.377781) 1320 2563 2
(0.0166594 0.175797 0.332033 0.475511) 1345 2612 2
(0.244084 0.389846 0.361774 0.00429524) 1346 2658 1
(0.209318 0.411459 0.277784 0.101439) 1370 2661 1
(0.137745 0.210289 0.447066 0.2049) 1371 2705 1
(0.623042 0.204612 0.0943804 0.0779658) 3 6 2
(0.417714 0.307362 0.175301 0.0996235) 3 9 2
(0.178203 0.175565 0.219154 0.427077) 27 10 2
(0.388326 0.151095 0.289664 0.170915) 27 78 2
(0.856996 0.055628 0.0769633 0.0104125) 51 124 2
(0.433091 0.0262474 0.256413 0.284249) 75 125 2
(0.174595 0.2516 0.396518 0.177288) 75 172 2
(0.827067 0.0703233 0.0067826 0.0958267) 99 219 1
(0.177134 0.0623869 0.335556 0.424924) 123 219 2
(0.686567 0.0960466 0.17287 0.0445164) 123 266 2
(0.537707 0.247297 0.0483901 0.166605) 147 266 1
(0.0690196 0.449307 0.105564 0.37611) 147 313 1
(0.556183 0.0738289 0.205879 0.164109) 171 357 1
(0.293868 0.336893 0.182211 0.187028) 195 404 2
(0.0615531 0.485396 0.0235171 0.429534) 219 407 1
(0.622881 0.0584297 0.204723 0.113966) 219 451 1
(0.124421 0.421604 0.2536 0.200375) 243 498 2
(0.246191 0.0552645 0.360737 0.337808) 242 499 2
(0.134216 0.445314 0.41673 0.00373952) 267 545 1
(0.789818 0.0646051 0.0900257 0.0555514) 267 548 2
(0.0353052 0.466169 0.168646 0.32988) 290 592 2
(0.651059 0.158317 0.18516 0.00546383) 291 595 1
(0.703464 0.164419 0.12367 0.0084473) 315 595 1
(0.00492883 0.498139 0.41415 0.0827827) 314 639 2
(0.0510196 0.224322 0.234024 0.490635) 338 640 2
(0.0100771 0.367486 0.482846 0.139591) 339 686 1
(0.327981 0.266643 0.319862 0.0855143) 363 733 1
(0.0698878 0.481226 0.229933 0.218954) 387 780 2
(0.458032 0.278392 0.102453 0.161123) 387 783 1
(0.620628 0.155471 0.203998 0.0199035) 411 827 1
(0.144883 0.411424 0.267378 0.176315) 435 874 2
(0.273514 0.347108 0.202513 0.176866) 435 877 1
(0.765693 0.101006 0.0464575 0.086843) 459 923 2
(0.18575 0.390956 0.352527 0.0707678) 483 924 1
(0.467152 0.281821 0.204441 0.0465854) 483 971 1
(0.686161 0.167474 0.0161336 0.130231) 507 1015 2
(0.366396 0.332946 0.201294 0.0993642) 531 1018 1
(0.213181 0.37727 0.128169 0.28138) 531 1065 1
(0.431974 0.227071 0.300152 0.0408035) 555 1109 1
(0.138601 0.446849 0.180676 0.233874) 579 1156 2
(0.26541 0.377208 0.128774 0.228608) 579 1159 1
(0.641716 0.184021 0.172162 0.00209987) 603 1205 2
(0.354297 0.303554 0.0143947 0.327754) 627 1206 2
(0.291843 0.370229 0.125692 0.212235) 627 1253 1
(0.664047 0.184135 0.0647255 0.0870925) 651 1299 2
(0.0594794 0.0846696 0.374678 0.481173) 675 1300 2
(0.84081 0.00237085 0.0610867 0.0957328) 675 1346 1
(0.468798 0.249469 0.162582 0.119151) 699 1347 1
(0.193483 0.419401 0.248245 0.13887) 699 1394 1
(0.669862 0.0482809 0.109701 0.172156) 723 1394 2
(0.141677 0.0520964 0.360928 0.445299) 723 1440 1
(0.529414 0.208547 0.0428883 0.219151) 747 1487 1
(0.355382 0.278936 0.0272235 0.338459) 771 1488 2
(0.265748 0.208415 0.350981 0.174856) 771 1535 2
(0.306684 0.325591 0.0360014 0.331724) 795 1581 1
(0.11293 0.435141 0.348282 0.103647) 820 1628 2
(0.695308 0.0588482 0.0773635 0.16848) 819 1582 2
(0.0936876 0.469312 0.1412 0.295801) 819 1629 1
(0.823524 0.02493 0.0471538 0.104392) 843 1675 1
(0.483549 0.0270938 0.214972 0.274385) 867 1676 2
(0.102688 0.167595 0.461979 0.267739) 867 1723 2
(0.237193 0.237809 0.130743 0.394256) 891 1769 1
(0.122332 0.426744 0.288106 0.162818) 915 1816 2
(0.0744997 0.447645 0.0218945 0.45596) 939 1863 2
(0.862136 0.0528261 0.0344306 0.0506077) 939 1863 2
(0.414312 0.276665 0.279559 0.0294646) 1296 2562 2
(0.166295 0.433033 0.00603901 0.394633) 1322 2567 1
(0.204807 0.199213 0.18219 0.41379) 1321 2611 1
(0.461681 0.253007 0.0804631 0.204849) 1346 2660 2
(0.284749 0.369793 0.326021 0.0194367) 1347 2663 1
(0.161873 0.402891 0.0221072 0.413129) 1370 2705 2
(0.57124 0.150845 0.230548 0.0473675) 1371 11 1
(0.204634 0.381471 0.129143 0.284752) 4 14 2
(0.351842 0.0161912 0.34025 0.291717) 4 9 1
(0.202934 0.350684 0.414751 0.0316309) 28 77 1
(0.0585664 0.48688 0.23396 0.220594) 52 124 2
(0.16512 0.401268 0.323782 0.109829) 52 127 1
(0.264979 0.208002 0.374115 0.152905) 76 171 1
(0.0718622 0.447885 0.160587 0.319666) 100 218 2
(0.137889 0.447236 0.166987 0.247888) 100 221 1
(0.39512 0.1836 0.318603 0.102677) 124 265 1
(0.212884 0.409709 0.0615914 0.315815) 147 312 2
(0.227036 0.00806561 0.39458 0.370318) 147 312 1
(0.491789 0.192441 0.0455185 0.270251) 171 359 1
(0.499405 0.127139 0.139319 0.234137) 195 360 2
(0.106656 0.416026 0.462806 0.0145116) 195 407 2
(0.424467 0.241439 0.0624655 0.271628) 219 453 1
(0.506592 0.204781 0.0257689 0.262858) 243 454 2
(0.254461 0.388954 0.176434 0.180152) 243 501 1
(0.020373 0.209506 0.505993 0.264128) 243 501 2
(0.215216 0.383661 0.376219 0.0249046) 268 547 1
(0.24831 0.00782682 0.35242 0.391443) 291 548 2
(0.345475 0.0278819 0.311115 0.315527) 291 595 2
(0.152588 0.409676 0.0535024 0.384234) 316 641 2
(0.0935769 0.222793 0.469356 0.214274) 315 642 2
(0.0371637 0.493302 0.234086 0.235449) 339 642 1
(0.748051 0.0494102 0.109844 0.0926948) 339 689 2
(0.66768 0.0496699 0.100363 0.182288) 363 689 2
(0.155205 0.406237 0.421831 0.0167269) 387 736 1
(0.264047 0.0308103 0.35332 0.351823) 387 782 1
(0.419543 0.252148 0.0219339 0.306375) 411 829 1
(0.303077 0.300821 0.0637742 0.332328) 435 830 2
(0.422472 0.0226584 0.282268 0.272602) 435 876 1
(0.191881 0.420197 0.17167 0.216253) 460 923 2
(0.0490189 0.0511813 0.491632 0.408168) 459 924 2
(0.495472 0.113729 0.154705 0.236094) 483 970 1
(0.370605 0.298541 0.157348 0.173506) 507 1017 2
(0.101365 0.0936978 0.33947 0.465467) 531 1018 2
(0.246612 0.116269 0.272533 0.364586) 531 1064 1
(0.600728 0.215779 0.132962 0.0505312) 555 1111 2
(0.193521 0.375047 0.0120531 0.419379) 579 1112 2
(0.319238 0.0167492 0.339769 0.324245) 579 1158 1
(0.305721 0.330994 0.135984 0.2273) 604 1205 2
(0.0175208 0.507354 0.0401354 0.43499) 627 1252 2
(0.34118 0.110116 0.235427 0.313277) 627 1252 1
(0.277667 0.345002 0.254147 0.123185) 652 1299 2
(0.392484 0.319911 0.0347972 0.252808) 652 1302 1
(0.534107 0.216796 0.0552499 0.193847) 676 1346 2
(0.0169307 0.0304185 0.44498 0.507671) 699 1347 2
(0.443103 0.11273 0.149584 0.294583) 699 1393 1
(0.178725 0.394658 0.308844 0.117774) 724 1440 2
(0.495035 0.23634 0.114458 0.154167) 724 1443 1
(0.476489 0.277886 0.0635348 0.18209) 748 1487 2
(0.0887666 0.453224 0.431955 0.0260546) 772 1534 2
(0.268874 0.0894117 0.381119 0.260595) 772 1534 1
(0.652675 0.148486 0.188722 0.0101174) 796 1581 1
(0.347869 0.289793 0.0454725 0.316866) 820 1584 2
(0.403775 0.314253 0.177106 0.104867) 820 1631 1
(0.0844285 0.118714 0.441641 0.355217) 819 1629 2
(0.126394 0.271049 0.448385 0.154171) 844 1675 1
(0.375243 0.328513 0.0239555 0.272288) 868 1722 2
(0.332694 0.318114 0.0718901 0.277303) 892 1725 1
(0.277065 0.352472 0.170716 0.199747) 892 1772 1
(0.802902 0.0325555 0.105495 0.0590473) 916 1816 1
(0.552505 0.207628 0.143539 0.0963287) 940 1819 1
(0.122758 0.183838 0.454722 0.238683) 940 1863 1
(0.406464 0.0586161 0.221992 0.312927) 1297 2518 2
(0.450015 0.00517172 0.290812 0.254001) 1298 2564 1
(0.0114648 0.510428 0.387914 0.0901932) 1321 2611 2
(0.0531792 0.457247 0.0281979 0.461376) 1346 2660 2
(0.677541 0.0110434 0.177378 0.134037) 1347 2663 2
(0.0427063 0.494794 0.252802 0.209697) 1372 2706 2
(0.424522 0.303943 0.259237 0.0122974) 1371 2706 2
(0.316046 0.297493 0.35812 0.0283412) 1372 14 1
(0.767394 0.0900853 0.0423635 0.100157) 4 12 1
(0.532899 0.191711 0.0580386 0.217351) 28 13 2
(0.0208325 0.505812 0.007058 0.466298) 28 80 1
(0.68478 0.0184907 0.173814 0.122915) 52 127 2
(0.719455 0.0728308 0.0836343 0.12408) 76 127 2
(0.13498 0.406522 0.0398998 0.418598) 100 174 2
(0.468065 0.0837373 0.166062 0.282135) 100 220 1
(0.625619 0.203326 0.0700616 0.100993) 124 267 2
(0.141562 0.361251 0.0518226 0.445364) 148 268 2
(0.580178 0.226048 0.12499 0.0687843) 148 315 1
(0.438884 0.296727 0.0939722 0.170417) 172 359 2
(0.145496 0.411088 0.0148984 0.428518) 196 362 1
(0.0736774 0.184004 0.447558 0.294761) 196 406 1
(0.294873 0.336375 0.354394 0.0143586) 220 409 1
(0.494765 0.00303254 0.268759 0.233443) 220 453 1
(0.0295674 0.501409 0.113479 0.355544) 244 500 2
(0.221778 0.372935 0.174088 0.231199) 244 503 1
(0.817192 0.0958415 0.0117253 0.075241) 268 549 1
(0.230407 0.368623 0.241733 0.159237) 292 550 1
(0.367442 0.300136 0.237211 0.0952117) 292 597 1
(0.692536 0.0555773 0.114308 0.137578) 316 597 2
(0.00689472 0.512389 0.411882 0.0688337) 340 644 1
(0.112823 0.427506 0.0413657 0.418306) 340 688 2
(0.245207 0.393505 0.305716 0.0555718) 364 735 2
(0.0959422 0.110139 0.325936 0.467983) 363 735 1
(0.494306 0.236682 0.113988 0.155025) 388 782 2
(0.087696 0.409084 0.439984 0.0632356) 388 785 2
(0.55503 0.178455 0.206323 0.0601926) 412 829 1
(0.0616681 0.453002 0.363125 0.122205) 436 876 2
(0.602975 0.21465 0.14575 0.0366254) 436 879 1
(0.709118 0.0706833 0.0586229 0.161575) 460 879 2
(0.0360249 0.496724 0.385148 0.0821032) 484 926 1
(0.459237 0.0599468 0.25423 0.226586) 484 970 1
(0.584388 0.191657 0.101535 0.12242) 508 1017 2
(0.244669 0.393821 0.210382 0.151127) 532 1020 1
(0.336015 0.32916 0.148524 0.186301) 532 1067 1
(0.355257 0.306229 0.0234051 0.315109) 556 1111 2
(0.0126388 0.477527 0.358947 0.150887) 580 1158 2
(0.577297 0.227488 0.169537 0.0256784) 580 1161 1
(0.494416 0.123517 0.113144 0.268923) 604 1161 2
(0.167726 0.432273 0.0162509 0.383749) 604 1208 1
(0.60295 0.107351 0.182379 0.107321) 628 1252 1
(0.269264 0.254646 0.120373 0.355718) 652 1255 2
(0.157522 0.244634 0.192742 0.405102) 652 1301 1
(0.480718 0.243501 0.105025 0.170756) 676 1348 2
(0.00581264 0.419679 0.0614806 0.513028) 700 1349 2
(0.543079 0.178433 0.212321 0.0661673) 700 1393 1
(0.187029 0.32569 0.0969379 0.390343) 724 1396 2
(0.219228 0.254331 0.119917 0.406524) 724 1442 1
(0.577487 0.227396 0.00630059 0.188816) 748 1489 2
(0.0733742 0.415387 0.463499 0.0477401) 748 1490 2
(0.117572 0.339994 0.445512 0.096922) 772 1537 2
(0.390882 0.219653 0.0687568 0.320708) 796 1583 1
(0.03032 0.500991 0.260802 0.207887) 821 1630 2
(0.306396 0.0611668 0.362942 0.269495) 820 1631 2
(0.872516 0.0462825 0.0013879 0.0798134) 844 1631 2
(0.264824 0.25405 0.120973 0.360153) 868 1678 2
(0.21802 0.178844 0.201326 0.40181) 868 1724 1
(0.601328 0.183366 0.0631494 0.152156) 892 1771 2
(0.127544 0.137843 0.286786 0.447827) 916 1772 2
(0.276803 0.0932178 0.253783 0.376197) 916 1818 1