/*--------------------------------*- C++ -*----------------------------------*\
  =========                 |
  \\      /  F ield         | OpenFOAM: The Open Source CFD Toolbox
   \\    /   O peration     | Website:  https://openfoam.org
    \\  /    A nd           | Version:  10
     \\/     M anipulation  |
\*---------------------------------------------------------------------------*/
FoamFile
{
    format      ascii;
    class       vectorField;
    location    "0/lagrangian/cloud";
    object      torque;
}
// * * * * * * * * * * * * * * * * * * * * * * * * * * * * * * * * * * * * * //


3300
(
(-5.00109e-08 -4.01418e-08 -1.68628e-07)
(-4.24191e-08 1.72263e-08 4.35993e-08)
(-7.11743e-08 1.65691e-08 1.01171e-08)
(1.50886e-08 -1.1934e-07 -4.24983e-08)
(-4.33194e-08 -8.69236e-09 -1.00313e-07)
(8.32591e-09 -5.68918e-08 4.11672e-08)
(-2.27371e-08 2.41595e-08 -5.69921e-08)
(3.13017e-08 -2.04762e-08 -5.95446e-09)
(-1.84604e-08 -8.33067e-09 -7.3878e-09)
(-8.28553e-08 -4.08317e-08 7.69389e-08)
(-4.25364e-08 -8.53396e-09 2.53889e-08)
(3.516e-08 -1.5844e-08 -1.11812e-08)
(-5.74288e-08 1.03573e-07 -1.15453e-07)
(-1.09978e-08 -9.06488e-09 -8.47594e-08)
(-7.17463e-09 6.58918e-08 2.20619e-07)
(-3.44763e-08 1.78657e-07 8.21668e-08)
(-2.11512e-07 6.84226e-08 -2.57301e-08)
(2.77064e-08 4.35591e-08 -2.20507e-08)
(6.46079e-09 -1.74472e-08 1.86177e-08)
(1.91803e-08 -2.14048e-08 -1.28246e-08)
(1.11826e-07 2.87751e-08 -7.69761e-08)
(1.86452e-08 -1.66687e-07 1.1592e-07)
(6.72353e-08 -1.63367e-08 4.39859e-08)
(7.28886e-08 2.07563e-07 -1.59458e-07)
(-1.52291e-07 9.89927e-08 1.75045e-07)
(-5.20628e-08 5.21644e-08 -1.57579e-07)
(8.12083e-08 1.95451e-07 1.48836e-07)
(2.67334e-08 -8.59465e-08 2.99388e-07)
(-2.74112e-08 3.44084e-07 -7.01887e-08)
(1.42746e-07 -3.21691e-07 -2.4958e-07)
(-2.42849e-08 -2.65274e-08 3.05986e-08)
(-2.47343e-07 -9.3754e-08 -3.98654e-07)
(2.25824e-07 -3.88075e-09 -5.72335e-07)
(5.86426e-08 5.42186e-08 7.35498e-07)
(-2.06222e-07 4.85343e-08 -1.17184e-08)
(2.66518e-07 6.39919e-07 4.85279e-07)
(2.9876e-07 3.06555e-07 -5.95211e-08)
(9.35774e-08 5.48607e-08 1.24551e-07)
(2.73005e-07 1.36266e-07 -1.42949e-07)
(-5.25943e-09 -4.53982e-07 -3.18245e-07)
(-3.01959e-07 2.3787e-07 -6.14758e-08)
(-1.9293e-07 -3.04103e-07 -3.65145e-07)
(-3.16302e-07 2.02045e-07 1.66828e-07)
(3.53001e-07 5.73413e-09 3.61641e-08)
(3.22609e-07 1.69276e-06 -5.08183e-07)
(-1.58785e-07 5.71585e-07 3.93641e-07)
(-3.1031e-07 -5.31393e-07 -3.59284e-07)
(-4.6321e-07 3.51264e-07 7.75603e-07)
(3.2977e-07 -2.24022e-07 -8.5057e-08)
(-2.33546e-07 -9.13177e-08 -3.18622e-07)
(-2.10698e-07 2.4837e-07 3.69772e-07)
(-2.84361e-07 4.27414e-08 2.07042e-08)
(1.22615e-07 8.88654e-10 1.14233e-07)
(-1.0187e-07 2.72631e-07 -4.54924e-08)
(4.32614e-07 1.3929e-07 -1.52171e-08)
(5.8867e-08 -1.4091e-07 5.82755e-08)
(-4.48693e-08 4.95421e-09 -4.49674e-09)
(-3.55524e-08 -1.23083e-07 2.31539e-07)
(5.3173e-08 -1.10089e-07 -7.6569e-08)
(-6.65443e-08 -1.86106e-07 -1.75652e-08)
(2.54194e-08 1.31942e-07 1.23588e-07)
(8.99684e-08 -3.99024e-08 -8.03344e-08)
(-4.66566e-08 -8.06082e-08 -5.83105e-08)
(-1.10786e-08 1.13948e-07 1.47059e-07)
(9.48725e-08 8.51194e-08 -8.95897e-08)
(8.51757e-08 9.28375e-09 -1.80763e-08)
(-2.17337e-08 2.32119e-08 1.24687e-07)
(1.15475e-08 -4.44164e-08 -4.39757e-08)
(-1.38581e-08 -1.61183e-08 1.30524e-08)
(-3.05432e-08 1.31861e-07 -4.43152e-08)
(7.29078e-08 -3.24944e-08 1.49136e-07)
(4.18006e-08 -8.97661e-08 -7.68705e-08)
(-1.20306e-07 1.40047e-08 1.03628e-07)
(4.96544e-08 5.33988e-08 6.50809e-08)
(5.12374e-08 6.04534e-08 7.80674e-08)
(-5.89377e-08 -3.54935e-08 -5.32013e-08)
(4.98698e-08 3.41408e-08 1.76199e-07)
(2.29685e-08 5.59218e-09 -1.33152e-07)
(2.77368e-07 3.22156e-08 7.28864e-08)
(-8.8016e-08 -7.43571e-08 -1.3174e-07)
(3.00886e-08 -3.63534e-08 -9.47239e-08)
(-4.20439e-08 -1.4249e-07 1.72856e-08)
(5.57052e-08 3.89438e-08 -6.78287e-09)
(9.46159e-08 -6.84801e-09 6.93935e-09)
(-5.64109e-08 1.80408e-08 1.34363e-08)
(5.98232e-08 -1.04818e-07 -4.6805e-08)
(1.32477e-08 5.38617e-08 8.6352e-08)
(-1.08386e-07 1.22505e-07 1.02477e-07)
(-1.05582e-07 -7.53608e-08 2.15013e-07)
(8.82889e-08 4.85787e-08 8.16883e-08)
(-3.18331e-08 -1.15792e-07 1.55994e-06)
(-4.51888e-07 -5.52517e-08 -2.64494e-07)
(2.61799e-07 -3.59202e-07 2.56274e-07)
(-2.13527e-08 -3.03398e-08 3.4895e-07)
(7.40684e-08 -2.16683e-08 -8.41588e-07)
(7.2062e-08 -4.10634e-08 -1.03854e-08)
(6.9815e-08 2.70051e-07 -6.68074e-06)
(-2.06954e-08 4.89828e-07 -6.52642e-06)
(2.9898e-08 7.81343e-08 -2.29637e-07)
(5.25418e-08 2.24472e-08 5.94951e-07)
(-2.11074e-09 -2.60435e-10 1.42009e-06)
(-1.03865e-08 1.39038e-09 -4.73327e-07)
(-1.56405e-07 -8.00579e-07 3.61425e-06)
(-1.98786e-07 9.99692e-08 -2.7747e-06)
(1.55602e-08 -1.74928e-08 -3.07245e-07)
(-5.72225e-08 2.00115e-08 -7.52977e-10)
(1.67046e-07 -3.48702e-07 6.98282e-08)
(6.86636e-07 1.11972e-08 -4.96762e-07)
(-3.53429e-07 -5.87166e-07 -4.11663e-08)
(7.36094e-07 -6.35636e-08 3.72853e-07)
(9.73636e-08 2.20093e-08 -5.12631e-08)
(4.14409e-07 2.3081e-08 3.02264e-07)
(2.79162e-08 6.65148e-08 -3.01983e-07)
(-2.21571e-07 3.25018e-07 -4.04431e-07)
(-5.05382e-07 -8.05812e-08 2.83836e-07)
(-1.58241e-07 -3.85339e-07 7.46362e-07)
(-2.91398e-07 -3.68999e-07 -4.44443e-07)
(3.18335e-09 1.79209e-07 3.61138e-07)
(-1.25027e-07 -1.94818e-07 5.71653e-07)
(-1.58123e-06 -1.05172e-06 1.51726e-07)
(5.52742e-07 9.67553e-07 -1.74123e-07)
(1.63657e-07 -8.57218e-08 -2.87491e-07)
(1.58162e-07 2.80311e-07 5.26837e-08)
(2.12142e-07 -2.75054e-07 7.90034e-08)
(4.96142e-09 1.31975e-07 -5.29665e-07)
(8.57869e-09 -8.71743e-09 1.01635e-07)
(1.26002e-07 -1.36846e-07 8.74855e-08)
(-6.77195e-08 9.95976e-08 4.82367e-09)
(2.85987e-08 7.30173e-08 -1.54932e-07)
(-1.9551e-08 -1.19132e-08 -6.61357e-08)
(2.42235e-07 -3.20457e-07 6.39711e-08)
(8.80694e-08 -3.52925e-08 -1.93424e-07)
(2.25913e-07 2.04836e-08 1.99099e-07)
(-2.34992e-07 -9.77209e-08 -1.69412e-07)
(4.30823e-08 1.32087e-07 1.92664e-07)
(1.63608e-07 -3.46047e-07 -2.94998e-08)
(-2.15333e-07 1.51509e-07 -4.58952e-07)
(-9.65178e-08 -2.01908e-07 8.32177e-08)
(7.02785e-08 -1.4047e-07 -3.27434e-07)
(5.80355e-07 3.65561e-07 5.27277e-08)
(-7.68629e-08 -9.08568e-08 -5.91519e-08)
(-3.43567e-07 -3.97333e-08 -2.16724e-08)
(-8.12808e-08 1.98216e-07 6.83171e-08)
(-4.60124e-08 -9.99876e-08 9.43218e-08)
(-1.64108e-07 1.04665e-07 8.7801e-09)
(2.69115e-07 2.16523e-07 5.86621e-09)
(5.11174e-08 -6.43987e-08 -6.90577e-08)
(-2.88366e-08 -1.08108e-08 -5.3695e-08)
(2.48785e-07 1.44228e-07 1.39159e-08)
(-1.04623e-07 -6.79322e-08 1.64863e-08)
(8.35573e-09 7.35167e-08 -6.41822e-08)
(-1.10215e-07 -7.45382e-08 3.69977e-08)
(6.03137e-08 8.73979e-08 8.02713e-08)
(9.77281e-09 4.20357e-08 7.82381e-08)
(1.59894e-08 -4.53134e-08 -3.63004e-08)
(2.38137e-08 5.0879e-08 3.06367e-08)
(-6.68697e-08 3.64806e-08 6.3142e-08)
(2.58533e-08 -8.74432e-08 -3.09483e-08)
(9.71786e-08 -3.22362e-08 -5.12265e-08)
(-1.97264e-07 3.33014e-08 -1.05674e-10)
(-9.30919e-08 7.48564e-09 5.07785e-08)
(5.03117e-08 -1.23716e-07 -5.63759e-08)
(-5.9524e-08 -3.45368e-08 -5.09269e-09)
(-3.55191e-08 6.18765e-08 -8.967e-08)
(5.73685e-07 1.20689e-08 -3.49208e-07)
(1.3835e-07 -8.00302e-08 5.40363e-07)
(-1.25679e-07 2.09103e-07 2.02526e-06)
(-2.5256e-07 -1.70935e-07 9.32463e-08)
(-4.38034e-07 -1.57728e-07 -5.59572e-07)
(-1.16763e-07 -5.88595e-08 -6.73252e-07)
(-1.93953e-07 2.07408e-07 2.08736e-07)
(8.07422e-07 9.90335e-08 -8.81721e-07)
(-7.57809e-08 -4.12876e-07 4.53817e-07)
(-5.9853e-08 -1.03668e-07 3.16419e-07)
(1.98841e-07 -1.25437e-08 -3.11892e-06)
(2.19592e-07 3.52104e-07 -3.33698e-06)
(1.73498e-07 1.53012e-07 -1.11796e-08)
(-3.35604e-08 -8.05078e-09 -1.12745e-08)
(-4.13109e-07 -1.88671e-07 -2.52658e-07)
(3.01637e-07 -1.92111e-07 4.08808e-09)
(-8.34689e-08 4.18758e-08 6.5438e-08)
(3.14892e-07 -3.96679e-08 2.23047e-08)
(4.7703e-07 6.16268e-07 3.53674e-07)
(5.51451e-08 3.15485e-07 3.62857e-07)
(1.73902e-07 5.79237e-07 -3.10951e-07)
(-4.6956e-07 8.01907e-07 -2.13948e-09)
(-1.24741e-06 9.49052e-07 9.99313e-08)
(-5.70908e-07 3.46544e-07 4.05979e-07)
(-1.70973e-06 -8.93605e-08 6.98642e-08)
(5.9389e-08 -8.74097e-08 -3.01874e-07)
(3.1178e-07 4.6243e-07 2.78112e-07)
(-2.53454e-07 -4.01439e-07 -2.31424e-07)
(4.59593e-07 4.38594e-07 8.21063e-08)
(6.81775e-07 -2.64505e-09 -6.35214e-08)
(2.2982e-08 8.99777e-08 -3.38087e-08)
(4.5841e-08 6.79211e-08 5.33163e-08)
(-4.74094e-08 8.82721e-08 -4.00704e-07)
(-8.81326e-08 -1.39676e-07 9.36649e-08)
(-1.13695e-07 -2.8774e-08 2.78228e-07)
(-5.053e-08 -8.45518e-08 1.54466e-07)
(7.60983e-08 -1.60046e-07 8.82169e-08)
(-2.31111e-08 -6.73344e-08 1.0881e-08)
(-1.2728e-08 -5.08374e-08 -4.94727e-07)
(-9.75132e-08 -1.29332e-07 -1.47377e-08)
(-6.56188e-08 1.60264e-07 1.63858e-07)
(-8.90521e-08 -6.11416e-08 -3.1769e-07)
(2.44991e-07 6.01299e-08 -1.8109e-07)
(2.59617e-07 -1.29826e-07 -6.55828e-09)
(-5.98427e-08 2.00283e-07 3.04026e-07)
(1.04346e-06 5.8803e-07 -2.36246e-07)
(-2.5611e-07 -2.98407e-07 -4.01186e-08)
(2.47293e-07 1.86181e-07 1.48858e-07)
(-1.92575e-07 -3.25221e-08 -6.41334e-08)
(-3.5944e-07 7.31942e-07 -5.95548e-08)
(1.83566e-06 2.04167e-07 -3.7241e-07)
(-2.54986e-07 7.69371e-08 -3.70136e-07)
(1.34391e-08 7.12092e-08 -8.8683e-08)
(5.7569e-08 -5.25697e-09 -1.35317e-07)
(-2.48297e-09 -2.67422e-08 4.16332e-08)
(4.90567e-08 4.8479e-08 -3.64714e-08)
(4.69731e-07 2.87549e-07 -4.03691e-08)
(1.20725e-07 7.79604e-08 -3.32374e-08)
(-1.34498e-07 -2.05839e-08 7.11837e-08)
(8.0517e-08 -1.24872e-07 6.35977e-08)
(-5.38407e-09 1.84983e-09 3.99991e-08)
(-2.6118e-09 1.14131e-09 -3.26281e-08)
(1.06256e-07 -1.51189e-08 4.46055e-08)
(-5.2661e-08 -4.4857e-08 -3.49072e-08)
(8.51488e-09 7.14022e-09 9.6324e-08)
(-5.69003e-07 3.23124e-07 -3.79319e-08)
(5.2509e-08 -7.55453e-08 1.19367e-07)
(-1.60382e-07 2.10428e-07 4.23567e-08)
(1.84659e-07 -1.33721e-07 -1.99672e-07)
(2.8687e-07 4.00581e-08 -5.58314e-08)
(-1.18933e-07 -3.31816e-07 -8.7201e-08)
(7.85935e-08 3.06154e-07 1.08352e-06)
(-2.38455e-07 4.20163e-08 -3.00841e-07)
(1.02228e-07 8.14464e-08 1.09754e-07)
(-3.71684e-07 2.3966e-08 -3.94625e-07)
(1.77937e-07 -3.08523e-07 3.4301e-07)
(-1.47098e-07 -2.81217e-07 7.6087e-07)
(4.70309e-07 9.8237e-07 2.95717e-07)
(1.0257e-07 9.06041e-07 -4.03212e-07)
(2.2032e-07 2.10852e-07 3.58832e-07)
(2.90319e-07 2.65968e-07 -2.30358e-07)
(-7.46038e-08 8.40781e-09 1.46464e-07)
(1.49388e-07 -9.51215e-07 5.4325e-06)
(-6.5563e-08 -7.00045e-08 1.9989e-08)
(2.42851e-08 1.52625e-08 1.91737e-08)
(-7.65513e-08 1.50989e-08 1.49174e-08)
(-7.16052e-08 -3.4162e-07 -2.72729e-07)
(-3.50347e-07 3.1445e-07 9.85395e-08)
(2.69444e-07 4.95015e-07 4.18815e-07)
(7.94901e-07 -1.26886e-06 -7.70826e-07)
(6.90098e-07 4.13309e-09 5.06559e-07)
(8.63797e-07 2.7797e-07 -2.20651e-07)
(1.61706e-07 2.05146e-07 7.23991e-08)
(-1.78169e-07 5.95505e-07 6.90181e-07)
(1.10853e-07 -1.26371e-08 -1.90364e-07)
(-6.41453e-08 2.81543e-08 2.48589e-07)
(-1.15635e-07 5.00264e-08 -2.71687e-07)
(1.49542e-07 5.09898e-07 -7.84716e-08)
(2.93831e-08 -1.0121e-07 -3.35091e-08)
(4.48124e-08 3.66e-07 -1.05193e-07)
(-6.1975e-07 -4.99538e-07 3.30767e-07)
(-4.71644e-07 2.52816e-07 -8.02965e-08)
(-1.6757e-07 -3.3425e-08 -1.16828e-07)
(-1.09514e-07 -1.82387e-07 -4.31105e-07)
(1.95858e-07 3.9524e-08 2.78022e-07)
(-2.42207e-07 -1.18592e-07 -2.16506e-07)
(5.38808e-08 6.38295e-08 -1.58817e-07)
(6.822e-08 9.00409e-09 -1.25169e-07)
(-8.53216e-08 -2.94784e-08 2.42804e-07)
(2.97279e-07 1.27547e-07 -1.79753e-07)
(-1.19176e-08 2.27906e-07 2.18113e-07)
(-1.31458e-07 -2.48285e-07 -3.25265e-08)
(-1.19644e-08 -1.32312e-07 -1.07167e-07)
(-3.70391e-07 -2.7433e-08 -3.37173e-07)
(3.20666e-07 1.51343e-07 2.8405e-07)
(6.19308e-08 -1.00795e-07 1.81321e-08)
(-6.4189e-07 -7.15942e-08 1.99738e-07)
(-2.87665e-07 -2.45936e-07 3.54786e-07)
(2.89173e-07 -2.08595e-07 -1.6299e-07)
(-2.69294e-07 2.00203e-07 -2.49251e-08)
(5.2794e-08 9.70741e-07 -1.97455e-08)
(1.0045e-07 5.8027e-08 -5.30861e-11)
(2.91441e-08 2.84471e-09 4.06719e-08)
(4.20141e-08 1.44949e-08 1.42193e-08)
(-3.41713e-08 5.83944e-09 -1.81674e-09)
(-5.02634e-07 3.82911e-08 1.91799e-08)
(-9.30647e-09 -4.45385e-08 1.04148e-07)
(7.97133e-08 -8.98918e-10 1.37177e-07)
(-4.13184e-08 -7.46296e-09 8.38608e-08)
(-8.32171e-08 -5.87266e-08 -3.16121e-08)
(9.20072e-08 1.63691e-08 5.72637e-08)
(1.03769e-07 -8.49399e-09 -8.29741e-08)
(1.34264e-07 2.24613e-07 -9.72349e-08)
(6.15075e-08 4.83009e-08 1.1543e-07)
(-4.99159e-08 -1.99037e-08 -2.90761e-08)
(-5.95436e-08 -4.812e-08 4.4591e-08)
(-6.23332e-08 1.42635e-07 1.28411e-07)
(-7.25228e-08 2.52227e-08 -2.68894e-07)
(4.47955e-08 -9.3751e-08 1.26145e-07)
(-8.60396e-08 -1.89556e-07 1.5725e-07)
(-5.14643e-08 3.27488e-07 1.48668e-07)
(-2.01797e-07 8.26637e-08 7.53547e-07)
(-9.3595e-08 -2.59842e-08 -5.69306e-07)
(3.20137e-08 6.61266e-08 -2.15169e-07)
(-3.57541e-08 9.39173e-08 -6.26624e-07)
(-1.58051e-07 7.93725e-07 -4.55386e-07)
(2.5637e-07 7.11317e-07 2.9419e-07)
(4.36459e-08 -1.43734e-06 1.24531e-07)
(-8.03728e-07 -4.11086e-07 9.45437e-07)
(-3.13686e-07 -8.99948e-07 -4.65449e-07)
(1.88569e-06 1.64633e-07 2.17719e-06)
(8.26641e-07 1.19903e-06 -3.91055e-07)
(-4.98248e-08 -1.88589e-08 1.91693e-07)
(-3.12935e-09 -2.37305e-08 -1.65684e-07)
(-3.60805e-08 8.75608e-08 -7.82295e-09)
(2.81077e-08 -9.43816e-08 -1.77407e-08)
(-2.1554e-08 4.92184e-08 4.26448e-08)
(9.28774e-09 3.02206e-08 -3.91931e-08)
(-4.18535e-07 -1.1186e-07 2.04302e-07)
(-3.72024e-08 -1.73172e-07 5.75151e-07)
(2.86919e-07 -3.05866e-07 -2.71712e-07)
(5.5637e-07 -1.09352e-07 1.0131e-07)
(-3.54981e-07 -7.44013e-08 -1.35907e-07)
(-1.84406e-07 -6.45305e-08 -2.40813e-07)
(-3.0718e-08 -3.46864e-07 4.62305e-07)
(3.26843e-07 -2.02585e-07 2.32333e-07)
(7.75704e-08 -4.15902e-07 -4.97991e-09)
(-8.92753e-07 -3.39469e-07 2.9235e-08)
(5.67853e-08 6.34118e-09 -1.2867e-07)
(1.88542e-07 -2.56546e-07 -3.59223e-08)
(7.91353e-08 -6.70102e-08 4.36694e-07)
(-6.2371e-07 4.197e-07 -2.90198e-07)
(6.15648e-07 -3.08343e-07 -2.08018e-07)
(4.50313e-07 -1.38355e-07 3.60059e-07)
(-2.76794e-07 3.47526e-07 -3.29681e-08)
(2.30258e-07 1.56413e-07 -2.75457e-08)
(4.08765e-07 -1.66321e-07 -3.19214e-07)
(2.45062e-08 1.76104e-07 1.1449e-07)
(4.28744e-08 -1.94397e-08 1.42007e-07)
(-1.58882e-07 -2.15318e-08 -3.05857e-08)
(7.75631e-08 6.53863e-09 -2.09425e-07)
(3.83296e-07 -2.46082e-07 -2.88581e-07)
(8.49143e-08 -4.10168e-08 -2.45037e-08)
(-6.06197e-07 4.36696e-07 2.83479e-07)
(-1.52934e-07 3.77407e-07 -3.107e-08)
(3.53095e-07 -9.62335e-07 -2.30991e-07)
(-3.80663e-07 -3.36808e-07 1.46864e-07)
(5.41172e-07 3.15449e-07 -1.86275e-08)
(7.50441e-08 2.13935e-07 1.06701e-07)
(-2.43038e-07 -1.34347e-07 -3.6852e-07)
(3.32488e-08 2.08081e-07 1.39834e-07)
(-9.98406e-08 -9.26142e-08 4.0107e-08)
(-8.22311e-08 -2.35103e-07 1.39855e-08)
(1.51043e-07 -1.29704e-07 1.0625e-07)
(-6.54476e-09 2.4521e-07 -9.89253e-09)
(-1.44565e-07 1.36036e-07 -8.1714e-08)
(3.43556e-09 -4.06293e-07 8.69242e-08)
(5.93955e-08 -2.50054e-08 -2.64653e-07)
(-1.364e-08 5.96427e-08 3.9649e-08)
(7.28383e-09 4.61809e-10 -4.59444e-08)
(-4.93666e-08 5.19912e-08 9.67071e-08)
(7.88895e-09 -5.39352e-08 -6.37194e-08)
(7.45621e-08 1.49407e-07 -1.05672e-07)
(8.37097e-09 1.10622e-07 3.87887e-08)
(-4.47194e-08 -1.30493e-07 -1.23381e-07)
(-2.47721e-09 3.58948e-09 1.20404e-07)
(-2.71033e-08 -6.79886e-08 9.21167e-08)
(-6.94256e-08 -7.04957e-08 1.85417e-07)
(-3.6177e-08 5.74226e-08 -1.33217e-07)
(8.56276e-08 2.69828e-08 -1.24328e-07)
(-4.87546e-08 -4.55739e-08 1.95816e-07)
(-2.94808e-07 3.35774e-08 -4.17661e-07)
(1.99305e-07 -7.72418e-08 3.65374e-07)
(-2.52937e-07 -1.25114e-07 1.47592e-07)
(-3.33658e-07 -1.14947e-07 5.23847e-08)
(-6.50582e-09 1.25273e-07 -2.18086e-07)
(6.47681e-07 -1.6484e-06 1.69247e-07)
(-3.27045e-07 7.45246e-07 4.75015e-07)
(1.38933e-06 1.6952e-06 -6.58318e-07)
(1.6221e-06 -5.09548e-07 1.00393e-06)
(-1.11414e-06 -2.06876e-07 3.68051e-07)
(-1.0868e-07 -1.03286e-07 -2.37729e-07)
(8.91617e-09 -1.14136e-09 -1.33523e-07)
(3.03634e-07 -5.16243e-07 -1.6214e-06)
(-2.91987e-08 3.63038e-09 -2.54339e-07)
(9.71753e-08 -9.3754e-08 -1.19417e-07)
(6.00607e-08 -5.96039e-08 2.18581e-08)
(4.12486e-07 -2.62091e-07 -1.21532e-07)
(2.8125e-08 -1.35937e-07 1.49396e-07)
(-2.11319e-08 6.95502e-08 -3.24844e-08)
(1.01191e-07 -2.0932e-09 8.86249e-08)
(-2.69843e-07 -2.00895e-07 -7.60817e-08)
(2.01775e-07 1.73201e-07 -6.14041e-08)
(1.52571e-07 -2.69844e-07 7.12814e-09)
(-3.78817e-07 6.24055e-08 -1.5137e-08)
(-3.15839e-07 -6.103e-08 1.22305e-07)
(-1.14458e-07 -2.84372e-08 1.67792e-07)
(5.45667e-07 5.9651e-07 -6.92418e-08)
(3.90011e-08 7.60254e-08 -1.9379e-07)
(-2.29857e-07 -6.61658e-08 -5.04402e-08)
(7.40537e-07 1.50571e-07 1.85304e-07)
(-1.06137e-07 5.11993e-07 -7.47542e-08)
(8.58019e-08 -8.36665e-08 -8.43516e-08)
(-8.0642e-08 -3.05619e-07 3.09174e-08)
(-9.08383e-07 -2.68498e-07 2.51202e-08)
(5.70603e-08 2.48133e-07 -1.77991e-07)
(8.71908e-08 5.69879e-07 1.94479e-07)
(-1.20326e-07 -1.15638e-07 1.55758e-07)
(-1.14035e-07 2.78745e-07 1.97596e-07)
(-7.4034e-07 -4.17705e-07 -1.19496e-07)
(-1.20346e-07 -2.18199e-07 2.18925e-08)
(-2.35808e-07 -6.79907e-08 3.30335e-07)
(-2.2031e-07 3.08897e-07 -2.922e-07)
(6.12318e-07 1.05652e-07 9.02501e-08)
(-3.35505e-07 5.25923e-07 2.72125e-07)
(-3.81287e-07 1.27322e-07 -4.02187e-08)
(-2.49335e-07 -3.67057e-07 3.05446e-07)
(-3.0004e-07 -2.66162e-07 3.40545e-07)
(-3.2925e-07 -8.67832e-07 -5.10824e-07)
(5.96504e-09 -3.19513e-07 3.25805e-07)
(-5.08202e-08 2.04542e-07 -2.70396e-08)
(-1.93818e-08 -8.77124e-09 5.66303e-08)
(1.6076e-07 1.1066e-07 1.14641e-07)
(1.40308e-07 -1.15789e-07 1.13878e-07)
(-4.27697e-07 -2.87586e-07 -5.98821e-08)
(-7.78324e-08 -1.42506e-07 1.66321e-07)
(-2.62971e-08 3.71378e-08 -5.16126e-08)
(1.11672e-07 5.35329e-08 -1.298e-07)
(-5.2768e-08 8.72275e-08 9.18092e-08)
(-5.61735e-08 -6.37605e-08 -5.84193e-08)
(-6.39885e-08 9.76019e-08 -1.27337e-07)
(-1.39582e-08 6.91743e-08 1.41457e-07)
(7.89989e-08 -6.46317e-08 -1.92739e-08)
(-1.42355e-07 -5.98772e-08 -4.64822e-08)
(-4.46247e-08 1.35173e-08 -9.47739e-08)
(1.04718e-07 4.84062e-08 1.2125e-07)
(-1.62601e-07 -1.16603e-07 -2.44744e-07)
(9.44265e-08 3.6224e-08 2.9166e-07)
(-3.83795e-08 1.32129e-07 -2.00336e-07)
(-1.89461e-08 -6.78485e-08 2.42376e-07)
(-1.68236e-08 6.12712e-08 -4.19587e-07)
(-2.83375e-08 3.86653e-08 1.19354e-07)
(-2.05963e-07 1.64872e-07 -5.19031e-07)
(9.63609e-08 -2.11879e-07 4.73397e-07)
(3.21019e-07 2.57961e-08 -4.01575e-07)
(-3.00006e-07 4.2068e-08 3.80972e-07)
(-2.0198e-07 -1.53244e-07 6.36513e-08)
(9.94452e-07 1.89207e-07 -9.63133e-08)
(-9.14011e-07 -1.32431e-07 3.2986e-07)
(-8.02097e-07 -8.13582e-07 -2.34561e-07)
(-1.177e-08 8.57921e-07 3.47879e-07)
(1.17358e-07 2.73017e-09 -5.61503e-07)
(-3.05303e-08 -6.52788e-08 1.91135e-07)
(8.69725e-08 -1.05829e-08 -2.27547e-08)
(1.70637e-08 -4.18028e-08 -4.45778e-08)
(-1.12681e-08 -2.17162e-09 4.36062e-07)
(7.60412e-08 -1.75706e-08 2.38902e-08)
(-5.04942e-08 2.05259e-08 -1.08364e-07)
(-1.0623e-07 9.56456e-08 4.75918e-09)
(-1.74179e-07 -1.20217e-07 -1.50903e-07)
(2.26165e-07 6.44152e-08 7.88364e-09)
(-1.30777e-07 -1.64904e-07 8.74904e-10)
(-9.55601e-07 3.04277e-07 -6.622e-08)
(8.85032e-08 9.35837e-08 1.22673e-07)
(-2.56799e-07 5.75994e-08 -1.94013e-07)
(-2.40294e-07 2.57804e-07 -1.67442e-07)
(2.71886e-07 -2.8362e-07 1.35646e-08)
(-6.29402e-07 6.97168e-08 5.83916e-07)
(-2.79088e-07 -9.34972e-08 -3.84224e-07)
(3.68229e-07 -2.09429e-07 -7.95156e-08)
(-2.35558e-07 1.48016e-06 9.03833e-09)
(-2.48602e-08 1.428e-07 1.98464e-07)
(4.61134e-07 2.6156e-09 3.99127e-08)
(-5.95711e-07 -1.83033e-08 -8.89949e-09)
(-5.09083e-08 1.17143e-07 8.76931e-08)
(-3.33801e-07 -7.25631e-08 -3.26574e-08)
(9.52009e-08 8.59852e-08 3.48423e-07)
(1.03893e-07 -1.4102e-08 -7.68714e-08)
(-9.88265e-08 1.2544e-07 -1.72598e-07)
(-2.93139e-07 1.39649e-07 -1.26291e-07)
(6.41019e-07 -3.03133e-08 -3.27774e-07)
(3.11705e-08 8.03416e-08 1.07287e-07)
(-6.75472e-08 -1.1849e-07 -6.84576e-08)
(-1.51589e-07 -2.85962e-07 3.50155e-07)
(4.56685e-08 2.65195e-07 -1.08759e-07)
(-9.55415e-08 -7.68248e-07 -2.74774e-08)
(7.80249e-08 -1.24029e-07 -4.74646e-07)
(-1.06723e-07 8.96929e-08 9.75205e-08)
(4.73756e-07 7.07765e-07 -5.93724e-08)
(5.82824e-07 2.99082e-07 4.15806e-07)
(-4.83204e-07 1.24082e-07 6.06923e-07)
(-1.19993e-07 -2.18015e-07 -3.16041e-07)
(1.71846e-07 2.03086e-08 1.66688e-07)
(-3.26396e-07 -2.16077e-07 1.78936e-07)
(-1.97257e-07 -1.13952e-07 -1.02162e-07)
(-1.29491e-07 -1.5828e-07 -2.05768e-07)
(-4.79851e-07 7.51014e-08 -7.54673e-08)
(-2.88879e-07 -4.40141e-08 1.73175e-07)
(4.74891e-08 1.18472e-07 -5.28515e-08)
(5.68092e-08 -1.97187e-09 1.80097e-08)
(1.61944e-09 3.91193e-08 -9.60939e-08)
(2.91873e-08 1.97694e-08 8.51928e-08)
(5.74505e-08 -9.6706e-10 1.09026e-07)
(4.98558e-08 -6.80893e-08 1.21207e-07)
(-5.30225e-08 -3.02623e-08 -6.85916e-08)
(-7.45585e-08 -8.5696e-08 3.84367e-08)
(6.48085e-08 -4.94083e-08 -4.9932e-08)
(-1.89203e-07 -1.37317e-07 -4.81521e-08)
(-1.22471e-07 5.61973e-08 1.43144e-07)
(4.73911e-08 4.65107e-08 -9.91173e-08)
(1.02663e-07 -5.99035e-08 1.88874e-07)
(1.87043e-08 1.34528e-07 -1.9987e-08)
(-9.62871e-08 1.42489e-07 -1.50032e-07)
(-8.45225e-08 -2.50473e-07 -1.43289e-07)
(1.39526e-07 5.00176e-08 5.54166e-07)
(1.59624e-07 -6.65572e-10 4.00914e-07)
(4.14259e-08 1.04832e-07 -6.83584e-07)
(4.01907e-08 -8.10378e-08 -5.24337e-07)
(1.63447e-07 3.89009e-07 3.32615e-07)
(-1.96003e-07 -6.89279e-09 2.22077e-07)
(3.69081e-07 -1.8521e-06 6.66067e-07)
(9.95473e-07 -1.86788e-06 -8.78498e-09)
(1.47155e-07 -1.28574e-08 4.95721e-09)
(-1.76996e-07 -4.32974e-08 6.24488e-08)
(-1.81856e-08 1.32927e-09 -2.41819e-07)
(4.78267e-09 1.2904e-08 6.07333e-08)
(2.87593e-09 -1.47374e-09 8.27536e-07)
(1.12576e-07 -1.51877e-08 -2.55984e-08)
(1.18101e-07 -3.42615e-08 -1.3821e-07)
(-2.94897e-08 -4.27712e-08 3.43814e-08)
(-2.28616e-07 -4.09877e-07 1.85761e-07)
(2.23571e-07 2.67074e-07 2.49279e-07)
(5.34399e-08 -1.86412e-08 -1.40874e-07)
(-2.88772e-08 1.13252e-07 3.25572e-08)
(1.01472e-07 1.69128e-07 3.35433e-08)
(-4.7728e-08 -1.30222e-07 1.86266e-07)
(1.29285e-08 -8.12278e-08 1.49352e-07)
(4.89199e-07 -1.38965e-07 -6.90714e-07)
(4.16639e-07 4.5452e-07 2.94931e-07)
(-4.63997e-07 -6.02094e-07 -1.23512e-07)
(5.1788e-08 -1.71266e-07 -6.19802e-07)
(8.11079e-07 4.95881e-07 7.53576e-07)
(2.5965e-07 -7.99725e-08 -1.02307e-06)
(3.50913e-07 -9.87709e-08 6.63812e-07)
(-1.70338e-07 2.66048e-09 1.6457e-07)
(2.02843e-07 -9.52217e-07 -2.51458e-08)
(3.20649e-07 -3.47736e-07 -8.53189e-08)
(-1.92109e-07 -1.27546e-08 2.3333e-07)
(2.11392e-08 4.03629e-08 -3.67981e-07)
(6.01427e-07 2.47292e-07 1.29487e-07)
(-3.86529e-07 -4.33756e-07 -1.14048e-08)
(1.04055e-07 -2.1105e-07 1.9773e-07)
(-2.99369e-07 4.46587e-07 2.15303e-07)
(5.84631e-08 1.28267e-07 7.14861e-08)
(2.37906e-07 1.91175e-07 -1.18029e-07)
(-1.19699e-07 3.31742e-08 2.19902e-07)
(-1.81556e-07 9.51418e-08 -2.30734e-07)
(-1.24258e-07 4.24327e-07 1.12749e-06)
(4.22958e-07 -8.173e-07 -1.09136e-06)
(7.09093e-08 7.00429e-07 9.58265e-07)
(5.94193e-07 9.8784e-07 4.73999e-07)
(3.70654e-07 1.09792e-07 2.54045e-06)
(4.07023e-07 6.36453e-07 5.98249e-07)
(8.68357e-08 1.04451e-07 6.75303e-08)
(-2.93758e-08 9.67499e-08 1.12515e-07)
(4.82515e-08 1.96228e-08 -8.03597e-08)
(2.84468e-08 -4.05693e-08 1.18807e-07)
(2.57533e-07 1.04668e-07 -1.58981e-07)
(-2.9682e-07 -2.44454e-08 1.33627e-07)
(3.30934e-07 -1.62196e-07 2.81699e-08)
(2.8612e-07 -1.2633e-07 -2.69692e-08)
(-1.22419e-07 -5.71952e-08 6.75904e-08)
(-2.77551e-08 3.88354e-08 -4.39363e-08)
(2.58702e-08 -9.03768e-08 -4.61943e-08)
(-1.67261e-09 6.70464e-08 1.7953e-07)
(3.93912e-08 -8.07918e-08 -8.46228e-08)
(5.13236e-08 -3.76679e-08 -9.54097e-09)
(-1.42695e-09 -4.9531e-08 -1.06458e-08)
(-1.56827e-07 1.45985e-08 -1.38969e-08)
(1.21039e-08 5.26167e-08 8.05533e-08)
(-1.83675e-08 -9.18515e-08 3.17746e-08)
(-1.69383e-07 -6.17635e-08 -1.0377e-07)
(1.50046e-07 -3.80649e-08 2.44781e-07)
(-3.86357e-09 -1.06335e-07 -6.86149e-08)
(-4.69012e-08 -4.54626e-08 1.79561e-07)
(-2.18312e-08 -5.5101e-09 -1.33277e-07)
(-3.89618e-07 1.05008e-07 -1.17442e-07)
(6.49278e-08 -1.7757e-07 2.93847e-07)
(2.3348e-07 3.09497e-07 2.69082e-07)
(-1.17889e-07 -1.33187e-07 -8.70733e-07)
(2.61119e-08 -2.95675e-07 4.81682e-07)
(-1.98841e-07 3.01788e-07 4.48814e-08)
(3.32945e-07 1.50521e-07 -1.6025e-07)
(9.51413e-08 6.47337e-08 5.45512e-07)
(-2.86938e-08 -1.05873e-07 6.92209e-08)
(1.86074e-08 -3.24441e-08 1.35105e-07)
(-2.07723e-08 1.01284e-08 -1.23254e-07)
(1.9382e-08 -1.68755e-08 -1.36094e-08)
(-1.93695e-08 1.41187e-07 1.41226e-07)
(3.43432e-07 -2.52153e-07 -3.06462e-07)
(1.24174e-08 1.55287e-07 5.96008e-08)
(2.14209e-08 -2.28783e-07 -6.03335e-08)
(-1.1976e-07 6.62895e-08 -1.06346e-07)
(-1.00651e-08 -1.26847e-07 9.46283e-08)
(3.4315e-08 2.45754e-08 -7.55118e-08)
(1.08757e-07 7.03871e-08 1.98192e-08)
(-3.84903e-08 5.14503e-08 -2.30875e-07)
(4.48621e-07 8.70882e-08 2.45488e-07)
(-3.07498e-07 1.46371e-07 1.91225e-07)
(9.77539e-07 1.1639e-07 1.03972e-07)
(3.18586e-07 -1.13332e-07 1.21205e-06)
(-2.53463e-07 1.76381e-06 5.34975e-07)
(-1.38931e-07 -8.67837e-07 6.33257e-07)
(-6.29644e-08 -5.13114e-07 -2.17459e-07)
(-2.62867e-07 -3.97789e-08 2.90374e-07)
(-1.37612e-09 1.32593e-09 -2.6754e-07)
(-1.13849e-07 -2.30802e-07 -6.04136e-08)
(6.8741e-08 4.08518e-07 3.94425e-07)
(1.89723e-08 -1.22529e-08 -2.96222e-08)
(-6.7636e-08 -5.93881e-08 -1.15395e-07)
(1.43168e-07 1.5765e-07 -9.33155e-08)
(-7.18661e-08 1.80057e-08 4.46479e-08)
(-3.01803e-07 -1.44859e-07 -1.58786e-07)
(1.65177e-08 -3.96963e-07 -3.24705e-07)
(1.81779e-07 3.59578e-07 -1.16386e-07)
(1.82741e-07 1.09673e-07 -7.14455e-08)
(-1.90858e-07 -2.74762e-07 8.50451e-07)
(2.23565e-07 3.54038e-07 -5.87507e-07)
(-1.11333e-06 1.2517e-06 -2.59427e-07)
(5.29788e-08 -2.49559e-07 -2.97161e-07)
(-9.98676e-08 2.10748e-07 1.68018e-07)
(7.85806e-07 2.11217e-07 1.04737e-06)
(3.88497e-07 -1.02268e-06 -1.02321e-06)
(-3.19889e-08 6.01887e-08 -1.89093e-06)
(6.61863e-08 -7.16569e-08 4.53318e-07)
(5.48618e-08 -1.16607e-07 -1.17533e-07)
(-3.5301e-08 -4.48844e-08 -4.23395e-08)
(1.0381e-07 -1.54003e-07 -1.10093e-08)
(-1.47429e-09 1.16402e-07 8.08874e-08)
(-5.77422e-09 9.78988e-08 2.57543e-08)
(1.5187e-08 -7.01129e-08 -2.322e-07)
(6.28773e-07 -2.17808e-07 9.80381e-08)
(1.04638e-07 -8.1207e-09 4.98212e-08)
(-4.1152e-08 4.32922e-08 2.13683e-08)
(5.02685e-08 1.74527e-08 -9.16125e-08)
(-5.1826e-08 -3.06119e-08 -2.35235e-07)
(3.70034e-08 5.32489e-08 1.65165e-08)
(5.40641e-08 -3.85249e-08 -3.80799e-08)
(-2.82458e-07 7.66602e-09 -1.37992e-07)
(2.99355e-07 1.70453e-07 -4.40401e-08)
(1.38593e-07 -1.53529e-07 -2.75171e-08)
(-2.52753e-08 3.19062e-08 -9.97749e-08)
(1.25942e-07 -2.58868e-07 2.1881e-07)
(1.47021e-07 -2.35757e-07 -8.84483e-08)
(-2.35682e-08 2.16591e-07 -4.08612e-08)
(2.50051e-07 -6.18078e-08 1.21825e-07)
(-2.44149e-07 2.35965e-07 -1.54179e-07)
(-7.01119e-08 -2.27831e-08 8.279e-08)
(1.99189e-07 6.83372e-07 1.97548e-07)
(7.08636e-08 1.15565e-07 -3.64707e-08)
(-1.87305e-07 -1.49417e-07 -2.84028e-07)
(4.5805e-07 -4.55773e-07 -1.34468e-07)
(9.08453e-08 4.55926e-07 -3.61159e-07)
(-3.69322e-08 1.79102e-08 6.90639e-07)
(-8.65678e-08 2.33869e-07 -1.92654e-07)
(1.07263e-07 -1.24017e-07 -6.88114e-07)
(1.18742e-08 -7.16093e-09 -5.43615e-07)
(9.12041e-09 -1.68497e-08 -1.01801e-06)
(2.33162e-06 -3.10366e-06 3.66207e-07)
(-5.65101e-08 -6.32047e-08 2.16118e-07)
(2.0123e-07 -7.87419e-08 1.60649e-07)
(-1.03e-07 -1.67933e-07 -4.47748e-08)
(3.78342e-08 1.67244e-07 -2.99093e-08)
(-2.57291e-07 1.48114e-07 1.07256e-08)
(1.30189e-09 -8.85143e-08 1.32691e-08)
(2.85877e-08 4.41605e-08 -1.34602e-07)
(1.65041e-07 -1.23352e-07 6.11775e-08)
(-8.62399e-08 3.84479e-08 -3.92741e-07)
(3.66984e-07 4.32675e-07 -1.53096e-07)
(-5.46372e-07 -7.13071e-08 -1.54275e-06)
(-5.54617e-07 -7.99007e-07 2.59144e-07)
(-1.53037e-07 2.96008e-07 5.49435e-07)
(-2.65927e-07 -4.5015e-07 1.80617e-07)
(-2.66153e-07 -1.77424e-07 -3.47203e-07)
(2.55545e-07 1.65398e-07 -3.26916e-07)
(2.14051e-08 -4.3807e-07 6.00459e-07)
(1.75103e-07 -3.60944e-07 3.70849e-08)
(-1.11695e-07 1.06342e-07 1.08218e-07)
(5.19513e-10 -2.77643e-08 -1.50924e-08)
(5.5611e-08 -1.99019e-07 5.58882e-08)
(5.0118e-08 5.3097e-08 -4.9947e-08)
(-3.27563e-08 -2.40236e-08 8.97917e-08)
(1.16345e-07 2.58663e-07 -2.50148e-07)
(4.11544e-07 -1.19508e-07 1.25128e-07)
(-6.6402e-09 -6.73628e-09 1.11743e-07)
(3.51303e-07 -7.36005e-08 -4.24674e-07)
(-7.1488e-08 -4.72582e-08 -8.2941e-07)
(1.67137e-07 6.57208e-07 9.31138e-07)
(-5.57113e-07 -1.38926e-07 4.05397e-07)
(-2.53738e-07 -7.55813e-08 -2.82208e-07)
(-3.1286e-07 1.41146e-08 4.38897e-07)
(-1.9511e-07 -2.20895e-07 -8.08894e-08)
(1.14603e-07 8.77969e-08 6.66717e-07)
(1.93471e-07 -2.5244e-10 7.15644e-07)
(-2.48502e-08 1.49446e-07 1.4101e-07)
(-7.82752e-08 2.37563e-08 -1.76596e-08)
(-1.73919e-07 1.85799e-08 -7.59554e-08)
(-2.80761e-08 -6.36378e-08 8.8704e-08)
(-2.95108e-07 -1.2276e-07 -1.94883e-08)
(-2.65877e-08 2.02871e-08 -5.6263e-08)
(-5.98204e-08 4.22941e-08 1.19681e-07)
(9.93675e-08 -7.14e-08 -5.85008e-08)
(8.76095e-09 -2.23555e-08 3.52151e-08)
(-6.01312e-08 6.03377e-08 9.12061e-08)
(-4.53625e-08 1.07407e-09 3.29896e-08)
(-1.20704e-08 6.65831e-09 1.63363e-08)
(7.72842e-08 1.44276e-07 4.66944e-08)
(-1.20509e-08 3.96018e-08 2.00129e-07)
(-1.1629e-07 -3.2595e-08 -3.57096e-07)
(3.81015e-09 -4.29535e-08 2.67722e-07)
(-1.04546e-07 -5.67572e-08 -2.72877e-07)
(-1.06107e-07 3.55439e-08 6.02143e-08)
(6.85217e-07 -5.98192e-07 -1.38617e-07)
(-3.86479e-08 -7.03202e-08 -9.42856e-08)
(3.1361e-08 -7.80579e-08 1.94221e-07)
(-8.91115e-08 -4.72715e-08 -2.51992e-07)
(-1.43941e-07 -7.50538e-08 -1.59869e-07)
(-8.06683e-07 8.16501e-09 -1.7067e-07)
(1.21004e-06 5.40693e-08 1.38664e-07)
(3.19483e-07 -1.15801e-08 -1.86737e-07)
(-3.71536e-07 -1.62553e-07 5.42663e-07)
(1.88351e-07 -5.43006e-08 9.4116e-07)
(-1.01807e-07 -3.42159e-07 -6.71931e-07)
(2.23038e-07 2.32249e-07 -4.28958e-07)
(-8.67157e-08 2.94368e-08 3.69756e-07)
(2.02408e-09 1.44032e-08 1.47178e-07)
(7.3836e-09 -1.02345e-08 -3.67925e-07)
(-1.56592e-09 -1.45933e-07 -3.59247e-08)
(1.09378e-08 -2.42865e-08 6.41442e-08)
(2.51935e-07 1.62682e-07 -4.51943e-08)
(1.37655e-07 -1.97752e-07 1.27114e-08)
(-4.56035e-08 6.24905e-08 2.14299e-08)
(-2.43881e-08 -1.96039e-07 -1.44012e-08)
(-4.8976e-09 2.49512e-08 -1.45036e-08)
(1.53211e-08 -2.48151e-09 -9.11931e-08)
(-7.29895e-08 1.77941e-07 1.2511e-07)