/*--------------------------------*- C++ -*----------------------------------*\
  =========                 |
  \\      /  F ield         | OpenFOAM: The Open Source CFD Toolbox
   \\    /   O peration     | Website:  https://openfoam.org
    \\  /    A nd           | Version:  10
     \\/     M anipulation  |
\*---------------------------------------------------------------------------*/
FoamFile
{
    format      ascii;
    class       vectorField;
    location    "0/lagrangian/cloud";
    object      U;
}
// * * * * * * * * * * * * * * * * * * * * * * * * * * * * * * * * * * * * * //


3300
(
(-1.61686e-05 -6.97487e-05 -1.84919e-05)
(1.84112e-05 8.75837e-05 -1.12504e-05)
(-3.05459e-05 -9.93072e-05 -2.14419e-05)
(2.92931e-05 -0.000342972 -0.00800176)
(-4.49958e-05 -5.80474e-05 0.000157795)
(2.21868e-06 6.01701e-06 -2.24798e-06)
(-7.83069e-07 2.00647e-05 8.97576e-06)
(1.97596e-05 3.68892e-05 -7.98393e-06)
(2.45989e-06 5.1884e-05 2.06544e-06)
(1.29455e-05 2.69837e-05 1.27816e-05)
(5.06879e-05 8.57024e-05 -1.57065e-05)
(1.98265e-05 6.46597e-05 -5.35498e-05)
(-1.07079e-05 2.00225e-05 3.35861e-05)
(-7.03142e-06 7.07708e-06 1.44359e-05)
(6.46464e-05 8.29056e-06 0.000828179)
(6.69168e-05 -2.94593e-06 -4.62466e-05)
(-5.5041e-05 -6.16781e-05 9.51268e-05)
(3.14371e-06 -4.10905e-05 -1.60719e-05)
(-2.58494e-06 -4.19701e-06 -0.000139643)
(-1.75243e-05 -7.8083e-05 7.40494e-06)
(-0.000269187 -1.65342e-05 1.66433e-05)
(-0.00036789 -2.49299e-05 -3.06338e-05)
(1.91447e-05 3.75474e-07 -1.38217e-05)
(4.22011e-05 2.80445e-05 5.44929e-06)
(-3.2471e-05 3.52427e-05 0.000241431)
(-0.000103267 -3.80738e-05 0.000262111)
(-0.000205344 -9.39003e-05 0.000294963)
(-4.84098e-05 -4.4488e-05 -0.000244572)
(0.000113855 7.81889e-05 -0.00105446)
(0.000306526 0.000196138 -0.00378332)
(0.000223311 0.00029078 -0.000192499)
(-1.07907e-05 -0.000133682 -0.00397961)
(4.52208e-05 -0.000798835 0.0039756)
(0.000270005 -4.71864e-05 -0.00808673)
(-5.67492e-05 9.16624e-06 2.13441e-05)
(-0.000101854 -2.37617e-05 -5.41275e-05)
(7.07699e-05 0.000274637 8.97777e-05)
(0.000160183 -0.000259079 0.000146673)
(0.000208724 -9.94672e-05 2.22615e-05)
(-0.000247053 -0.000124262 9.73119e-05)
(-0.000113171 -0.000121148 -6.81211e-05)
(6.59485e-05 2.51118e-05 -0.000400851)
(-7.39408e-05 -5.96346e-05 0.000112535)
(6.01536e-05 -7.36374e-05 -0.000150371)
(6.09365e-05 -1.93764e-05 0.000111542)
(-0.000145151 -2.48789e-05 -2.02616e-05)
(-5.32952e-05 1.76347e-05 -8.33488e-05)
(0.00025461 0.000200493 -0.000104151)
(4.7573e-05 0.000112743 1.1948e-05)
(-1.90469e-05 0.000228438 0.000130997)
(9.57838e-05 -1.32309e-05 2.19989e-05)
(0.000124123 -3.0798e-05 1.0978e-05)
(6.10504e-05 7.53791e-06 6.09722e-05)
(8.72849e-05 -4.56896e-05 8.72567e-05)
(9.42779e-05 3.74972e-05 1.10353e-05)
(0.000105007 -7.7807e-05 -3.09731e-05)
(0.000151213 -8.33378e-05 -0.000213208)
(1.83556e-05 -2.99498e-05 -3.93975e-05)
(2.96459e-05 6.45955e-06 2.73813e-05)
(3.31373e-05 1.96093e-05 -1.47681e-05)
(3.7561e-05 4.1703e-05 -2.20801e-05)
(3.65849e-05 3.95097e-05 1.01994e-05)
(1.09915e-05 1.56043e-05 1.46552e-05)
(1.91763e-05 -7.10626e-06 -5.17967e-05)
(4.44516e-05 4.90602e-06 -3.09469e-05)
(-5.69771e-05 -4.89643e-06 3.29444e-05)
(-0.000111726 7.83398e-07 -2.64525e-05)
(2.14177e-05 1.05765e-05 -3.4993e-05)
(-2.48342e-05 -5.10589e-05 9.44108e-06)
(-0.000104795 -3.43939e-05 1.08983e-06)
(-7.95498e-05 -2.61587e-05 -8.07395e-06)
(-0.000121619 -6.34473e-05 8.83312e-05)
(-1.80423e-05 -9.80188e-06 0.00186483)
(5.57227e-05 -0.000133039 -0.000687864)
(-6.18452e-06 -5.03551e-05 0.000274916)
(6.14204e-05 -5.56255e-05 -2.24896e-05)
(0.000146429 7.48255e-05 0.000499288)
(-0.00023352 0.000135389 -2.73523e-05)
(-1.18521e-05 -6.22578e-06 2.69174e-05)
(9.18608e-05 1.94147e-05 -1.53912e-05)
(-5.44729e-05 -1.87722e-05 -4.69589e-05)
(2.03704e-06 4.9492e-05 -7.15818e-05)
(7.24486e-05 0.000106432 5.64197e-05)
(-4.2761e-05 4.95209e-05 6.68398e-05)
(-5.99405e-05 4.02147e-05 1.75542e-05)
(-0.000142964 6.93401e-05 -2.58074e-05)
(4.77624e-05 9.10084e-05 -3.90282e-05)
(9.96691e-05 7.52707e-05 1.22354e-05)
(-5.98815e-05 -1.58393e-06 0.000157085)
(-0.000509853 -3.87342e-05 -0.00179728)
(-0.000292061 -0.00138098 -0.00220993)
(0.000336522 0.000302251 -0.000308735)
(-0.000174531 0.000264788 0.000329433)
(-3.1864e-05 -0.000448093 -0.00477467)
(0.000522585 0.000100743 0.00313016)
(0.000365378 4.8632e-05 0.00294832)
(-0.000252979 -0.00026031 -2.62418e-05)
(-0.00167208 -0.0029053 -0.00608584)
(0.000190876 -5.64923e-05 -0.00157435)
(-0.00623871 0.00158322 -0.000460944)
(-0.0215678 -0.00116607 -0.000591703)
(0.00613476 -0.000615373 4.17674e-05)
(-0.0116762 0.00342698 -0.000843778)
(-0.0166411 0.00163346 0.000370113)
(0.0968405 -0.12493 -0.000985403)
(-0.000147239 1.14634e-05 -1.09503e-06)
(-6.20858e-05 0.000166068 0.000126478)
(-8.15979e-05 5.76842e-05 -9.76449e-05)
(0.00011531 -4.25399e-05 -8.35138e-06)
(-0.000173351 -0.000553298 -0.000155736)
(-0.000169644 -0.000126749 0.000603013)
(0.000138019 -5.08788e-05 -0.00014326)
(0.000148452 -0.000106321 -0.000148264)
(1.60734e-05 -9.77605e-05 -0.000179198)
(6.65444e-05 -1.8955e-05 0.000147909)
(0.000125698 -2.32427e-05 0.000168466)
(0.000180885 -5.89251e-05 1.57517e-05)
(-8.17573e-05 -5.32329e-06 4.71005e-06)
(-0.000176798 -4.69622e-05 8.70635e-05)
(4.48325e-05 -0.000164455 -2.163e-05)
(8.46326e-05 3.77649e-06 0.000114193)
(0.000128253 -6.41384e-05 -8.07456e-06)
(-1.27054e-05 7.12577e-05 0.000114002)
(4.12661e-05 -8.96549e-05 0.000376965)
(-6.59707e-05 -0.000200801 4.568e-05)
(-2.88632e-05 -0.000171164 0.000220547)
(-5.38661e-06 0.000166863 5.76037e-06)
(-0.000130972 0.000139976 -3.17763e-05)
(-0.000133966 -0.000140004 0.00588185)
(0.00023571 -0.000318039 0.000562821)
(3.05935e-05 8.09601e-06 -9.07927e-06)
(2.1081e-05 1.05576e-05 -5.79118e-05)
(-9.15355e-05 0.000241905 -9.86761e-05)
(-3.67267e-05 2.34564e-07 1.54468e-05)
(5.64361e-05 -7.19266e-05 5.41345e-05)
(-2.71763e-05 -4.22573e-05 -6.80399e-05)
(1.24533e-06 7.40265e-05 0.000714885)
(0.000147907 -4.42368e-05 2.41044e-06)
(1.62965e-06 8.20348e-05 1.86511e-05)
(-3.10171e-07 -3.17318e-05 4.14931e-08)
(2.86489e-05 -7.45774e-05 -0.000477758)
(4.52671e-06 -4.75582e-05 8.03545e-05)
(-0.000105529 -1.34239e-05 -2.79044e-05)
(-0.000241205 0.0003577 0.000163805)
(-9.3958e-05 -1.2269e-06 9.2759e-06)
(-0.000122584 1.26477e-05 -1.36819e-05)
(-0.000147048 -3.06321e-05 3.42026e-06)
(9.38187e-05 -5.09659e-05 -6.04813e-06)
(2.57306e-05 3.58515e-05 2.00951e-05)
(5.45646e-05 5.09382e-06 -8.24853e-05)
(2.29086e-05 -1.96509e-05 8.239e-07)
(-5.48187e-05 9.7489e-07 -1.07345e-05)
(-1.84463e-05 -1.52549e-07 1.44619e-05)
(-2.16827e-05 -3.25182e-05 2.57068e-05)
(-1.18475e-05 -4.59305e-05 -2.55834e-05)
(-8.09426e-06 -3.89867e-05 2.07337e-05)
(5.79182e-05 6.79799e-06 4.26588e-05)
(-1.7893e-05 1.39669e-05 -1.10102e-05)
(2.51371e-05 6.2987e-05 -1.84422e-05)
(7.03454e-05 4.3301e-05 -1.97021e-05)
(-6.67069e-05 3.756e-05 -3.36472e-05)
(4.72427e-05 4.33673e-05 -4.27175e-05)
(-0.000147252 -3.88676e-07 -0.00132507)
(6.46903e-06 0.000140847 -0.000122657)
(-8.1974e-05 0.000154938 5.27938e-05)
(-2.84647e-06 0.000221512 -0.000247924)
(0.000865955 -0.000343728 -0.000890362)
(0.000322534 -0.000227889 -0.0041624)
(-0.000354171 0.000572677 0.00140775)
(-0.00028553 4.36273e-05 -0.00124886)
(0.00019449 0.000517776 -0.00043665)
(0.000123858 0.000619035 -0.00395351)
(-2.85249e-05 0.000425748 0.0005828)
(0.000182293 0.000560909 0.00135805)
(-0.00232774 -0.00199032 0.000716447)
(-0.0129276 0.000593701 -0.00245208)
(1.42014e-05 -9.90898e-06 3.49035e-05)
(-1.95566e-05 4.42364e-05 -2.52698e-05)
(-0.000161904 -0.000140023 -3.06825e-05)
(0.000108374 -0.000172037 -7.71357e-05)
(-0.000112483 0.000160831 -8.66924e-05)
(6.56383e-05 -0.000102506 -4.23465e-05)
(0.000220765 3.38194e-05 -9.84692e-05)
(3.05455e-05 -5.64239e-05 -9.12027e-05)
(0.00022529 3.78788e-05 -0.00014564)
(0.000223006 -5.01781e-05 -4.0517e-06)
(0.000176723 -2.5641e-05 0.000104452)
(0.000182221 3.76959e-05 -7.07634e-06)
(9.42642e-05 -9.81934e-05 -6.65091e-05)
(8.18868e-05 3.12022e-05 -8.12176e-05)
(9.26175e-05 0.000153349 8.37103e-05)
(-2.79849e-05 8.44316e-05 -8.71903e-05)
(6.5306e-05 0.000215413 -6.21209e-05)
(1.03253e-05 0.000118059 3.04632e-05)
(1.77326e-05 0.000137401 0.000342129)
(-0.00015968 -8.69428e-06 0.000383962)
(-7.4004e-05 5.72945e-05 -1.5367e-05)
(5.5489e-05 -1.29346e-05 -0.00319291)
(0.000140357 0.000106366 -0.00119971)
(1.21064e-05 0.000101694 -5.37894e-06)
(-7.71078e-05 -3.52305e-05 -1.721e-05)
(-1.49299e-05 -6.65587e-05 -2.53159e-05)
(-0.000149882 0.000238467 -5.25758e-05)
(3.98709e-05 7.63146e-05 -3.59766e-05)
(4.87684e-05 0.000110715 -5.08757e-05)
(0.00014295 0.000128632 -9.69876e-05)
(0.000281351 -0.000131352 2.99556e-05)
(-0.000276335 -7.40711e-05 -0.000171145)
(-2.37196e-05 7.44169e-05 -4.43378e-06)
(1.14976e-05 -4.24337e-05 6.32526e-05)
(5.06836e-05 -5.5685e-05 -1.0679e-05)
(5.18452e-05 5.81105e-06 1.6838e-05)
(-4.59059e-05 9.32012e-05 -3.51926e-05)
(-2.86989e-05 0.000270468 0.0001564)
(0.000304154 0.000197245 0.000993304)
(-0.000366423 8.25412e-05 0.00118982)
(-0.000214842 0.000166151 -1.5686e-05)
(-2.123e-05 2.10436e-05 -1.63077e-05)
(4.72417e-05 -2.14491e-06 -3.24249e-05)
(3.31656e-05 -2.26799e-05 -6.57246e-06)
(2.90833e-05 -4.87543e-05 2.83188e-05)
(1.85474e-05 1.91754e-07 2.33996e-05)
(2.3893e-05 2.25478e-06 0.000134207)
(0.000136966 2.17513e-05 6.11529e-06)
(-3.95376e-06 -6.93979e-05 -6.40622e-05)
(-3.89047e-05 -3.76395e-05 9.44541e-06)
(3.74696e-05 -2.05152e-05 5.38549e-05)
(-9.08418e-05 0.000124215 1.3114e-05)
(3.4761e-05 8.09132e-05 3.71877e-05)
(5.24144e-05 3.88752e-06 -1.47891e-05)
(0.000113291 7.26508e-06 -8.4886e-06)
(3.65575e-05 2.92929e-05 2.56617e-05)
(-1.96676e-05 -4.57551e-05 -2.51732e-07)
(-2.60778e-05 -5.41531e-05 -5.84141e-05)
(-3.33573e-05 -8.54514e-05 -6.66897e-05)
(-0.000101209 -0.000512856 0.00607929)
(-0.000213438 -0.000532089 -0.00113964)
(-4.45135e-05 -0.000450427 -0.00400203)
(0.000257943 -7.26774e-05 0.000325078)
(0.000100151 0.000275397 8.56966e-05)
(6.38544e-05 0.0003324 0.0011176)
(-0.000486205 0.000149006 -0.000783227)
(-0.011298 0.000519201 -0.00190254)
(-0.0113575 0.000918313 -0.00123854)
(-0.0113027 0.000370474 -0.001281)
(-0.0112752 -7.88753e-05 7.45312e-05)
(-0.00648924 -0.00334833 0.00249616)
(-2.98544e-05 6.48984e-06 1.81049e-06)
(-6.92406e-05 9.5511e-06 -1.8808e-05)
(0.000137223 -1.8389e-06 -5.1393e-05)
(-0.000154268 3.64432e-05 -6.28622e-05)
(4.3472e-06 5.66754e-05 -3.53852e-05)
(0.000120835 -0.000111128 3.05654e-05)
(0.000157257 6.81568e-06 2.81227e-05)
(0.000189754 4.3997e-05 -7.28731e-05)
(0.000340964 0.000223292 2.09892e-05)
(0.000384679 0.000205707 0.000191035)
(0.00027803 7.17696e-05 -7.31483e-06)
(0.000262519 0.00119153 0.00181676)
(0.000146941 0.000135491 3.14993e-05)
(0.000127079 0.000105398 0.000176698)
(0.000158431 9.20548e-05 9.26859e-06)
(0.000122516 5.01698e-05 6.21146e-05)
(9.08958e-05 0.000125188 0.000147489)
(-3.46409e-05 0.00016581 -1.77744e-05)
(2.30399e-05 0.000115579 -3.29736e-05)
(1.54046e-05 0.000126234 0.000111352)
(-1.7895e-05 0.000131 0.00324684)
(-9.82117e-05 -2.71674e-06 -3.58077e-05)
(-0.000215266 1.61369e-05 0.00681234)
(3.02038e-05 8.06655e-05 3.48099e-05)
(-7.08426e-05 0.000112111 -4.63777e-05)
(-9.01485e-05 0.000155605 -3.54823e-05)
(9.06591e-05 9.19676e-05 -3.04206e-05)
(7.70004e-05 -7.14197e-05 3.56801e-05)
(5.15101e-05 0.000206634 -0.000143699)
(0.000334504 -0.000128978 -0.000116765)
(-5.47031e-05 2.16878e-05 -0.000172195)
(-0.000278685 0.000241534 0.000327022)
(-0.000683423 0.000874745 -0.00016546)
(-3.40715e-05 -0.000171102 2.19575e-06)
(-6.56368e-06 4.91937e-05 6.25553e-05)
(4.32442e-05 0.000125173 4.22535e-05)
(-3.55312e-05 0.00014179 -0.000131253)
(-7.38355e-05 0.000124259 0.000259838)
(1.35739e-05 2.75485e-05 -0.000185113)
(1.0821e-05 0.00011156 0.00840405)
(-1.58709e-05 -5.32144e-05 -3.94296e-05)
(3.20296e-05 2.67034e-06 8.15788e-06)
(6.08554e-05 -1.94803e-05 -2.94941e-05)
(3.76327e-05 -0.000175262 0.00205366)
(8.86436e-05 -8.7967e-05 -1.65011e-05)
(8.14451e-05 -9.9513e-05 1.9777e-05)
(6.64428e-05 -8.99456e-05 2.41442e-05)
(6.25601e-06 -6.54206e-05 7.69078e-06)
(-6.21813e-05 -6.25221e-06 -2.77024e-05)
(-0.000122895 3.42474e-05 1.61327e-05)
(-0.000134225 5.97741e-05 7.60737e-06)
(1.773e-05 0.000116913 3.34325e-06)
(8.61699e-05 0.000133168 -5.47418e-05)
(-6.05407e-07 5.11227e-05 -2.14752e-06)
(-9.97186e-05 1.85664e-07 7.18245e-05)
(-6.01343e-05 4.03987e-05 6.00879e-05)
(6.20924e-05 -8.41828e-05 -2.7942e-05)
(0.000174931 -1.80975e-05 0.000929518)
(0.000616488 -0.000969494 9.53732e-06)
(7.58853e-05 -0.000309289 3.24651e-05)
(-0.00020773 -0.000467712 -0.000378746)
(0.000307762 -0.000390876 0.00132773)
(-1.83711e-05 -1.78223e-05 6.68121e-05)
(-0.000317514 -0.00067152 -0.00213083)
(-5.621e-05 5.82093e-05 0.000721157)
(-0.00921598 0.000774486 0.00523244)
(-0.0112234 8.80508e-05 -0.0015691)
(-0.00336321 -0.00602457 -0.00220582)
(-0.00282612 -0.00693261 -0.00151217)
(-0.00705711 -0.00963965 -0.00100498)
(-0.0028354 -0.0120402 -6.46012e-05)
(-9.83585e-06 -1.51616e-05 6.69168e-05)
(-1.5231e-06 -2.77073e-06 -0.000336703)
(-1.39226e-05 -3.3255e-05 1.86342e-05)
(1.73706e-05 -3.72265e-05 -3.25217e-06)
(-9.10532e-05 8.10195e-05 -9.08057e-05)
(0.000116508 -0.000160588 -0.000132888)
(2.08979e-05 1.2928e-05 7.98412e-05)
(1.61805e-05 -7.90489e-06 -1.18891e-05)
(2.51949e-05 -8.48866e-05 -7.27887e-05)
(0.000396013 -0.000301221 0.000149492)
(0.000754547 0.00064519 -0.0141316)
(0.00015667 -0.000284577 3.26631e-05)
(-6.52219e-05 -0.000333919 -7.74605e-05)
(6.58486e-05 -8.56165e-05 4.15389e-05)
(1.18676e-05 8.97631e-06 2.72384e-06)
(5.65032e-05 4.87065e-05 1.6612e-06)
(0.00015653 -8.52441e-06 -7.17002e-05)
(-0.000173429 5.99931e-05 -2.7025e-05)
(-9.80816e-05 0.000155322 -7.23954e-05)
(-5.43539e-05 8.51397e-05 -2.98077e-05)
(-7.23327e-05 -1.29349e-05 8.06909e-06)
(-4.63952e-05 -6.28379e-05 2.28896e-05)
(3.44964e-05 -6.48838e-05 -5.03587e-05)
(1.59508e-05 -9.92493e-05 -0.00162129)
(-2.81758e-05 -5.64889e-05 -4.81411e-05)
(-4.77439e-05 -1.36986e-05 -1.74254e-05)
(0.000114477 -1.90595e-05 9.41017e-05)
(6.13255e-05 -0.000123428 0.000104619)
(7.96029e-05 -6.37012e-05 7.92337e-05)
(0.000188917 8.42381e-05 -0.000176775)
(9.122e-05 4.69119e-05 0.000264564)
(6.41132e-05 7.0028e-05 0.000583376)
(-4.69841e-06 8.20428e-05 0.000727469)
(-4.29073e-05 -4.15908e-05 0.00019595)
(1.52063e-05 -5.65353e-05 -0.000107996)
(3.36637e-05 -4.11119e-05 1.26697e-05)
(-2.28425e-05 1.03617e-05 2.48969e-05)
(-6.16204e-05 4.04435e-05 -7.34908e-05)
(-8.44115e-06 -3.98764e-06 -2.79087e-05)
(8.34243e-05 5.50992e-06 -1.81299e-05)
(5.55666e-05 -2.03909e-06 1.70645e-05)
(2.16327e-05 -1.46712e-05 1.63645e-05)
(6.66307e-05 -3.23042e-05 1.57062e-05)
(-2.05326e-05 -6.9089e-05 2.84755e-05)
(8.95021e-05 -4.13223e-05 2.09153e-05)
(8.11209e-05 -8.19734e-05 -3.17647e-05)
(1.83579e-05 -4.79301e-05 -1.12562e-05)
(-6.9427e-06 -7.36696e-05 -4.15978e-05)
(-6.4326e-05 -1.15647e-05 -5.06621e-05)
(-0.00013513 3.49071e-05 -3.02901e-05)
(-0.000134664 2.08573e-05 -7.28945e-05)
(0.000126731 -4.99902e-06 -4.50263e-05)
(0.000210619 8.46258e-05 3.85379e-05)
(0.000118199 0.000159995 -2.69721e-05)
(-0.000144093 3.08932e-05 3.23813e-05)
(-0.000202359 -2.23485e-05 3.84946e-05)
(-3.12332e-06 -0.000140355 -1.65182e-06)
(7.03414e-05 -3.05444e-05 -0.000117777)
(1.04349e-05 -0.000145822 0.0001313)
(0.000142152 -0.000201942 -0.000205339)
(-5.57391e-05 -6.10312e-05 -8.41551e-05)
(-0.000399189 -0.000212781 -1.2412e-05)
(-0.000293734 -0.00011533 -0.000157412)
(-0.000310057 -0.000200127 -0.00349068)
(-0.000232627 -0.000335851 2.83649e-05)
(-0.00778365 0.000360594 0.00016036)
(-0.00811787 0.000127752 0.00158291)
(-0.00240575 -0.00423098 0.000154355)
(-0.000203732 -0.0042482 -0.00119464)
(-0.00297877 -0.00604352 -0.00341805)
(-0.00333971 -0.00518836 4.21642e-05)
(1.7134e-05 8.40598e-06 4.2648e-05)
(-1.94834e-06 9.23424e-06 4.21975e-05)
(2.00842e-06 -3.76427e-05 -1.64393e-05)
(-1.68935e-05 -5.24991e-05 1.62948e-05)
(8.1641e-05 -5.61967e-06 8.41402e-05)
(-0.000328485 -7.58091e-05 0.0012907)
(6.09698e-06 -0.000104061 -0.000141283)
(-4.24237e-05 1.90995e-05 9.52373e-06)
(-3.14048e-05 4.90345e-05 -3.28198e-05)
(6.53245e-06 -2.67213e-05 -9.83655e-06)
(8.62141e-05 -0.00029162 -0.000483461)
(0.000205551 -7.85572e-08 0.000122878)
(-0.000270633 9.90907e-05 2.77862e-05)
(-0.000132437 7.16397e-05 -5.63687e-05)
(0.000101485 6.39671e-05 -9.8358e-05)
(-0.000149527 0.000121444 1.83189e-05)
(8.97969e-05 1.44207e-05 -7.96885e-05)
(-0.0001858 9.27106e-05 -6.03156e-05)
(-0.000123732 0.000123953 -5.8409e-05)
(-3.53906e-05 5.73667e-05 -2.86652e-05)
(-4.53273e-05 2.50417e-05 5.48859e-05)
(-5.85992e-05 -4.93581e-05 -6.84851e-05)
(7.07734e-05 -9.71268e-05 -3.50022e-05)
(-4.46409e-05 -0.000107876 -9.52298e-05)
(-2.40899e-05 -0.000132933 -0.000101356)
(-0.000171106 5.90258e-05 -0.00017592)
(0.000116445 -0.000113549 -4.04817e-06)
(9.62996e-05 -0.000154996 -0.000153839)
(0.000289774 -0.000229374 3.21741e-05)
(0.000131168 -0.00018628 0.000176924)
(-1.45714e-05 -5.41979e-05 8.67021e-05)
(0.00135975 -0.000335883 -0.000559383)
(-8.44066e-05 0.000396431 0.000479755)
(-8.99937e-05 0.00024994 0.000512987)
(0.000242415 7.10369e-05 -0.0028697)
(4.43762e-05 -0.000268662 -0.000462308)
(0.000123974 -7.9335e-05 2.2918e-05)
(-4.56627e-06 9.85735e-05 3.54736e-05)
(4.2615e-05 3.35224e-06 5.1656e-05)
(5.27528e-05 -4.37241e-05 9.73142e-06)
(4.06378e-05 -0.000275586 0.000139958)
(-2.58495e-05 -4.05025e-05 -9.68658e-06)
(6.81757e-05 2.17754e-05 2.11694e-05)
(-1.4431e-05 7.7124e-06 1.58971e-05)
(6.58436e-05 1.01215e-05 -1.56887e-06)
(7.42428e-05 -1.49573e-05 2.35491e-05)
(-1.7945e-05 -4.63195e-06 0.000948258)
(2.19369e-06 1.65886e-05 -0.000158691)
(-2.63707e-05 -1.50391e-05 4.78155e-05)
(-0.000109998 2.94042e-05 -3.61167e-05)
(-9.78493e-05 3.941e-05 2.16537e-05)
(-5.32755e-05 8.5962e-05 -0.000134624)
(6.17152e-05 0.000169488 0.000105038)
(8.78072e-05 0.000132708 7.06625e-05)
(-0.000170858 3.82001e-06 -3.45032e-05)
(-0.000177761 0.00027145 -0.00122999)
(0.000227514 0.000120074 4.35242e-05)
(-3.04059e-05 -4.05907e-05 8.48331e-05)
(5.38779e-05 -1.24037e-05 -4.18492e-06)
(0.000186899 -4.36625e-05 8.30061e-05)
(8.60113e-05 -6.518e-05 0.00162379)
(0.000194198 -0.000142128 -2.98758e-05)
(-0.000179379 -8.3715e-05 0.000207595)
(-0.000159534 -0.000163324 -0.000460311)
(-4.99385e-05 -0.000363035 -0.0016339)
(7.57916e-05 -0.000210846 -0.00150356)
(0.00128422 -0.000576315 -0.00128104)
(0.000297007 -0.000744207 -0.00128019)
(-0.000964627 -0.000601889 -0.00118575)
(-0.000555346 -0.000522293 -0.000537922)
(-0.00296387 -0.00385812 -2.2214e-05)
(1.93268e-05 2.3242e-06 1.29701e-05)
(4.27921e-05 2.25604e-05 -5.92075e-06)
(-6.24027e-06 -3.72508e-05 2.46315e-06)
(-6.83255e-07 -5.63103e-05 -5.24245e-05)
(-4.22778e-05 6.34202e-07 0.00112204)
(6.32705e-05 -3.66377e-05 -2.89563e-05)
(6.34923e-05 -4.80994e-05 5.92926e-06)
(-5.54888e-06 7.81109e-05 3.55105e-05)
(-5.26657e-05 6.79902e-05 -2.34123e-05)
(-4.02266e-05 4.05411e-05 -2.6155e-05)
(0.00010478 2.90343e-05 -1.80404e-05)
(0.000146941 -9.21696e-05 2.99174e-05)
(-3.37862e-05 -5.90342e-05 8.1495e-05)
(-8.7023e-05 2.67146e-05 -7.06357e-06)
(0.000152753 0.000229242 -1.95574e-05)
(-0.000156803 9.0747e-05 9.19622e-05)
(-0.000370176 0.000135079 0.000115393)
(-0.0002275 0.000120266 -3.18352e-05)
(-0.000160283 -1.84787e-05 7.07659e-05)
(-3.97933e-05 -8.74661e-05 2.35401e-05)
(-0.000163258 -3.08279e-05 -1.68932e-05)
(-8.1934e-05 -6.26764e-05 2.59487e-05)
(3.00747e-05 -7.5689e-05 1.07436e-05)
(-8.40955e-05 -3.94117e-05 -1.96599e-05)
(-3.71595e-05 -3.47582e-05 6.98677e-05)
(5.85133e-05 -0.000110458 4.44269e-05)
(-0.000244573 3.52889e-05 -0.000335569)
(3.70897e-05 -0.00011318 -0.000146377)
(0.00056633 1.60755e-05 -0.00570271)
(0.000582733 -8.63056e-05 -8.06741e-06)
(0.000376085 -0.000920747 -0.00241938)
(0.000131637 -0.000159893 -0.0006327)
(-0.000179971 -8.0877e-06 -0.000790213)
(8.05134e-08 0.000146765 0.000356749)
(0.000391568 0.000113002 3.45798e-05)
(-0.000223636 3.51992e-05 3.6603e-05)
(0.000177891 -7.63418e-05 -9.93288e-05)
(-6.87985e-05 5.67624e-05 -3.81715e-05)
(7.44426e-05 -5.83127e-05 4.00648e-05)
(2.74073e-05 -2.93053e-05 -1.56716e-05)
(5.87424e-05 -7.9336e-06 1.90068e-05)
(-3.12422e-05 -7.21291e-05 -2.01518e-05)
(7.69492e-05 3.34143e-05 1.3056e-05)
(0.00150068 3.17127e-05 0.00194746)
(3.19068e-05 -7.35405e-05 2.42705e-05)
(4.59376e-05 -5.5331e-05 -3.82033e-06)
(-1.7682e-05 3.582e-06 3.03864e-05)
(-2.03371e-05 -2.20159e-05 5.33507e-06)
(1.49394e-05 1.92501e-05 0.000128307)
(-6.69717e-05 2.68413e-05 5.11341e-05)
(-8.67789e-05 7.96231e-05 1.42704e-05)
(-6.65016e-05 0.000120605 1.62984e-05)
(-3.0915e-05 0.000136365 1.0634e-05)
(-1.86558e-06 0.000152773 1.43776e-05)
(9.53464e-06 0.000249102 -4.24693e-05)
(0.000138473 0.000130756 -0.00014508)
(0.000167681 9.60333e-05 -2.76636e-05)
(0.000194731 5.36914e-06 5.61586e-05)
(-0.00297357 -0.00155751 0.00280613)
(-8.00791e-05 -0.000830654 0.00381834)
(0.000179206 -0.00013596 0.00149478)
(0.000478344 0.000113271 -0.000931731)
(0.000342905 1.57125e-05 0.000280867)
(0.000157164 -0.000222994 -0.000433926)
(-4.05955e-06 -6.86417e-05 0.00081583)
(0.000235104 0.00043142 -0.00240736)
(-0.000495091 0.000475941 -0.000563249)
(0.00031267 6.89952e-05 -0.00487676)
(0.0001439 -0.000261976 -0.00349215)
(-0.000494347 7.51684e-05 -8.46888e-06)
(-0.00950319 0.00117834 -4.51298e-05)
(-2.11531e-05 -1.59771e-05 -1.88936e-05)
(0.000365883 -0.000199277 0.000923072)
(-7.07811e-06 2.72116e-06 7.2744e-05)
(8.85849e-05 -6.83058e-05 4.16441e-06)
(2.40207e-05 -6.41792e-05 -5.41214e-06)
(0.000109423 1.63076e-05 1.61343e-05)
(8.28119e-05 3.32228e-05 2.0527e-05)
(6.49566e-05 4.75365e-05 6.95423e-05)
(2.69886e-05 -1.75241e-05 0.00014359)
(-7.57867e-05 -3.60624e-05 1.36553e-05)
(6.15868e-06 -2.58588e-05 -9.71194e-06)
(0.000358521 8.1814e-06 -6.20579e-06)
(-3.98125e-05 0.00012505 4.81288e-06)
(-0.000127286 9.78e-06 -0.000446499)
(-0.000223874 -0.000182712 -9.86976e-05)
(-7.1787e-06 0.000190578 -3.90859e-05)
(-0.00020392 3.26803e-05 -0.00010416)
(-0.000177833 -0.000101222 6.9011e-07)
(-8.8748e-05 -3.3683e-05 6.65755e-05)
(-3.99125e-05 -2.82723e-05 1.81167e-05)
(-0.0208463 -0.00223334 -0.000556161)
(4.51933e-05 -0.000120654 1.44011e-05)
(2.34431e-05 -0.000140391 -1.35934e-05)
(9.0602e-05 -0.000223797 5.20663e-05)
(-8.54444e-06 -0.000170807 3.15433e-06)
(7.34687e-05 -0.000249171 9.62882e-05)
(0.000102983 -0.000168248 2.04464e-05)
(3.62316e-05 -0.000182916 1.46438e-06)
(0.000122922 -0.00018658 0.000114874)
(0.000476421 -0.000227527 -0.00120628)
(0.000665157 1.3092e-05 -0.000543558)
(0.000211653 -2.15882e-05 -0.000110568)
(2.2151e-05 -5.02863e-05 -0.000930693)
(0.000167325 8.13719e-05 -0.000105444)
(8.79078e-05 0.000296393 -6.36204e-05)
(-0.000399487 -8.41283e-05 -0.000134521)
(-0.000438056 -3.1271e-05 -0.000112983)
(8.33342e-05 -0.000537258 -5.6468e-05)
(-7.24459e-05 1.78316e-05 9.55409e-05)
(2.52351e-05 -8.72658e-05 -2.58908e-05)
(5.6749e-05 -6.78249e-05 -2.98944e-05)
(5.7075e-05 -4.80222e-05 -9.57472e-06)
(3.19599e-05 -2.20916e-05 -1.58833e-05)
(0.000125523 -4.46844e-05 -7.62157e-05)
(3.50606e-05 -3.6886e-05 -1.14183e-05)
(-2.96915e-05 7.16159e-06 -1.33161e-05)
(-7.57471e-05 -5.47694e-05 9.39329e-06)
(0.000170795 -0.000392291 7.8075e-05)
(7.34224e-05 -6.4697e-05 -3.97868e-05)
(-3.91875e-05 5.87375e-05 1.15269e-05)
(-6.81839e-05 0.000105915 -1.67428e-05)
(-4.0676e-05 0.000105426 9.43552e-06)
(-8.26554e-05 0.000110729 -8.24659e-06)
(5.73801e-06 0.00010663 -8.58067e-05)
(-7.62042e-06 0.000129662 -5.57362e-06)
(8.57141e-05 5.67813e-05 -5.60505e-05)
(0.000157938 1.79588e-05 -5.82988e-05)
(0.000266156 4.94868e-05 3.48889e-05)
(0.000354394 8.72617e-05 0.00311062)
(-0.000256212 -0.000172915 0.00462521)
(0.00023686 -0.000184952 -8.23129e-05)
(0.000404478 -0.000492792 4.7719e-05)
(0.000416889 -0.000171542 -0.000134955)
(0.000184375 0.000110212 0.000239219)
(0.000306488 8.93649e-05 -0.00289728)
(0.000422011 -0.000161452 0.000100177)
(-0.000147178 -0.000483865 0.000104683)
(0.000509856 0.000267216 -0.00252786)
(-0.000448534 0.000415049 -0.000509269)
(-0.000706626 0.000203665 3.32971e-05)
(-0.000747401 0.000522746 8.16206e-05)
(5.25954e-06 -3.40903e-05 3.11126e-05)
(0.000174803 -0.000489084 -1.25271e-05)
(3.39954e-05 -2.86916e-06 -7.55579e-06)
(4.19655e-05 -1.07179e-05 1.13909e-05)
(1.18207e-05 -2.46044e-05 7.65022e-06)
(-3.41591e-05 -5.7841e-05 5.92243e-06)
(0.000106183 -0.000104022 1.97504e-05)
(0.00013366 -0.000101326 7.74613e-05)
(-2.72844e-07 3.51746e-07 5.89139e-05)
(-7.79146e-05 -2.85e-05 -3.3537e-05)
(-4.96604e-05 -3.30431e-05 -7.43427e-05)
(9.7634e-05 -0.000198059 -2.32981e-05)
(-0.000117121 -0.000343103 -0.000295294)
(9.27329e-05 -0.000156391 -3.04116e-05)
(-2.06662e-05 -0.000165441 -3.84993e-05)
(-0.000133118 -0.000188628 8.31988e-05)
(-0.000699773 -0.000348818 -0.0030211)
(-6.1978e-05 -0.000246829 -2.6773e-05)
(4.74794e-05 -0.00017441 -3.5592e-05)
(-1.26918e-05 -0.000125172 -2.23595e-05)
(4.56346e-05 -0.000219433 -1.54597e-06)
(2.20477e-05 -0.000240636 7.92133e-05)
(-0.000127294 -0.000278806 7.17109e-06)
(-1.2381e-06 -0.000210354 7.89338e-07)
(0.000110769 -0.000156157 0.000152913)
(2.98016e-05 -0.000217967 0.000416233)
(4.90241e-05 -0.00016076 5.13179e-05)
(8.53582e-05 -0.000171713 6.69121e-05)
(3.59981e-05 0.000112419 -9.08761e-06)
(-0.000111518 0.000300752 -9.50825e-05)
(-8.67768e-06 5.93408e-05 -0.000259111)
(9.16928e-05 8.37269e-05 -0.000390081)
(0.000213598 9.44131e-05 0.000568322)
(0.000168701 9.52983e-05 8.66161e-06)
(0.000513714 9.7177e-05 -2.76566e-05)
(0.000177015 -0.000370098 5.66442e-05)
(0.000223382 -0.00041978 0.000126737)
(-8.36532e-05 -0.00010855 5.44043e-06)
(-9.80649e-06 -6.22504e-05 2.04023e-05)
(2.82443e-05 -1.18538e-05 8.61724e-06)
(2.92379e-05 -4.06247e-06 -1.40766e-05)
(6.82004e-06 5.07859e-06 -2.2716e-05)
(0.000112364 -6.13769e-06 1.34927e-05)
(9.10744e-05 4.30926e-05 -2.28102e-06)
(-6.03734e-05 -2.60346e-05 -2.46406e-06)
(-5.06481e-05 -1.6661e-05 3.27696e-05)
(-8.78108e-05 3.48345e-05 7.05566e-06)
(9.55816e-05 -0.00064086 -0.00491334)
(-2.35106e-05 7.98425e-05 -2.42998e-05)
(-5.65893e-05 7.54277e-05 5.83756e-05)
(-1.12235e-05 4.72109e-05 -8.82916e-05)
(-4.99754e-05 6.07542e-05 0.000799428)
(2.21774e-05 5.93749e-05 0.000339926)
(2.07418e-05 5.6517e-05 -0.000796852)
(7.66665e-05 6.11863e-05 6.17951e-05)
(0.000166584 5.30632e-05 -1.00037e-05)
(0.000235169 6.60435e-05 -1.07401e-05)
(0.000262541 -4.40785e-05 0.00133134)
(-1.44298e-05 -0.000114406 -4.1689e-05)
(0.000124929 -0.000482153 -6.4535e-06)
(0.000215008 -0.000423302 0.000806788)
(9.16814e-05 -0.000306018 -8.91184e-06)
(-0.000204164 -0.000180169 -2.70163e-05)
(-0.000146604 -5.58615e-05 0.000526954)
(-0.000191674 0.000146855 -8.60945e-05)
(0.000220507 0.000315219 -0.00510436)
(0.000857441 0.000667433 -4.31427e-05)
(0.00131561 7.87079e-05 0.000446932)
(-0.000258257 -0.000295378 6.38751e-05)
(-0.000460786 6.09097e-05 -7.60075e-05)
(-0.000130625 -0.000173659 0.00196382)
(0.00044923 -0.000133092 0.00072948)
(2.04859e-05 4.01379e-05 1.5858e-05)
(6.60209e-05 2.35202e-05 -4.78624e-05)
(5.25569e-05 3.72033e-05 3.39383e-06)
(-3.82093e-05 -6.22841e-05 -9.80127e-06)
(0.000116193 -2.64945e-05 9.42669e-06)
(0.000151279 -3.55105e-05 -4.22861e-05)
(-5.04952e-05 -9.93618e-05 -3.00787e-06)
(1.35497e-05 -0.000150368 -0.00198593)
(0.00011859 5.59882e-06 9.71648e-05)
(1.82067e-05 -1.55869e-05 -2.41169e-05)
(-2.64193e-05 -0.000224439 -9.20623e-05)
(-2.03601e-05 -0.000161441 9.96969e-06)
(-6.02081e-05 3.91422e-05 7.72852e-06)
(1.94352e-05 -6.43689e-05 0.000105072)
(0.000154337 1.94652e-05 -9.84151e-05)
(-3.38824e-05 -0.000287561 -1.79722e-05)
(7.21593e-05 -0.000312493 -1.69759e-05)
(8.13891e-06 -0.000196888 -3.44982e-05)
(-7.09263e-05 -0.000162447 -1.19561e-05)
(-5.43617e-05 -0.000181436 7.13594e-06)
(-8.40932e-08 -0.000193987 7.58614e-05)
(-2.14985e-06 -0.000160461 -6.33723e-05)
(-8.07183e-05 -0.000206347 7.40471e-06)
(-4.13937e-05 -0.000211535 6.64058e-05)
(2.26764e-05 -0.000166842 -0.000171935)
(1.64668e-05 -8.05475e-05 2.23025e-05)
(-0.00037681 -0.00015157 0.00023066)
(7.91954e-05 5.5439e-05 0.000175343)
(-7.32743e-05 9.49908e-05 -8.12441e-05)
(0.000294055 -2.38069e-05 -0.000210178)
(0.000166519 -6.21895e-05 7.38006e-05)
(0.000103939 8.3803e-05 -1.87181e-05)
(0.00066989 -8.20052e-05 0.00318281)
(8.42558e-06 -2.0693e-05 -4.53701e-05)
(-5.27887e-05 5.69488e-05 -6.17788e-05)
(-2.05825e-05 -1.72151e-05 -1.89655e-05)
(4.7517e-05 -1.63679e-05 1.76258e-05)
(6.9595e-05 1.29984e-05 2.00124e-05)
(2.33469e-05 7.82168e-05 -9.68948e-06)
(-2.49249e-05 0.000169157 1.17134e-05)
(0.000170004 -6.34865e-05 2.00245e-05)
(-0.00013711 0.00018692 -1.51676e-05)
(-2.98724e-05 9.92285e-05 5.77045e-05)
(-1.29334e-05 5.33242e-05 -7.69944e-06)
(1.5155e-05 -1.35195e-05 1.50427e-05)
(-6.0055e-06 8.20303e-06 3.10682e-05)
(-6.43373e-05 -8.58196e-06 4.019e-05)
(1.13776e-05 -6.37525e-05 -3.60101e-05)
(6.76389e-05 -6.25189e-05 3.65307e-05)
(-6.8695e-07 -1.06834e-05 6.67017e-05)
(-6.33153e-05 2.61442e-05 -4.11375e-06)
(0.000118403 1.95998e-05 -2.02463e-05)
(9.99917e-05 6.9017e-05 -6.63008e-05)
(0.000233884 8.52137e-05 -0.00105222)
(0.000364096 0.000263278 -0.00036373)
(-0.000107231 -7.92748e-05 9.9443e-06)
(0.000260749 -0.000231125 0.00113939)
(0.000229012 -9.69712e-05 -0.000684769)
(7.64796e-05 -8.74456e-05 0.000329264)
(-0.000228366 -0.000164709 -0.000129818)
(-0.000313901 -0.000152428 0.0049343)
(-5.31926e-05 -1.28135e-06 0.000844841)
(0.000407417 0.00020082 -0.000427475)
(0.00036555 0.000153002 0.000103018)
(0.000495282 3.40809e-05 0.000679464)
(-5.49923e-05 -0.000423422 -0.000850006)
(-0.000640555 -0.000209801 -0.000110729)
(-2.32951e-05 5.72682e-05 -3.60034e-06)
(3.2015e-05 0.000142318 -8.63167e-06)
(-7.14637e-05 9.46672e-05 -6.42098e-06)
(-7.0551e-05 4.44983e-05 4.8744e-06)
(3.38653e-05 -1.3927e-05 -2.41256e-05)
(2.07683e-05 -1.28202e-05 -7.61843e-05)
(8.92161e-06 -2.47957e-05 -3.49273e-05)
(-3.15398e-05 -5.89213e-05 5.40664e-06)
(-3.02851e-05 -0.000100789 -1.18214e-05)
(1.53511e-05 -0.000108776 1.97095e-05)
(3.32364e-05 -6.71281e-05 4.48376e-05)
(5.57497e-05 -3.78704e-05 -9.21978e-06)
(-1.83962e-06 3.61429e-05 -3.24546e-05)