/*--------------------------------*- C++ -*----------------------------------*\
  =========                 |
  \\      /  F ield         | OpenFOAM: The Open Source CFD Toolbox
   \\    /   O peration     | Website:  https://openfoam.org
    \\  /    A nd           | Version:  10
     \\/     M anipulation  |
\*---------------------------------------------------------------------------*/
FoamFile
{
    format      ascii;
    class       polyBoundaryMesh;
    location    "constant/polyMesh";
    object      boundary;
}
// * * * * * * * * * * * * * * * * * * * * * * * * * * * * * * * * * * * * * //

6
(
    top
    {
        type            patch;
        nFaces          50;
        startFace       4900;
    }
    left
    {
        type            wall;
        inGroups        List<word> 1(wall);
        nFaces          50;
        startFace       4950;
    }
    right
    {
        type            patch;
        nFaces          50;
        startFace       5000;
    }
    bottom
    {
        type            wall;
        inGroups        List<word> 1(wall);
        nFaces          50;
        startFace       5050;
    }
    front
    {
        type            empty;
        inGroups        List<word> 1(empty);
        nFaces          2500;
        startFace       5100;
    }
    back
    {
        type            empty;
        inGroups        List<word> 1(empty);
        nFaces          2500;
        startFace       7600;
    }
)

// ************************************************************************* //
