/*--------------------------------*- C++ -*----------------------------------*\
  =========                 |
  \\      /  F ield         | OpenFOAM: The Open Source CFD Toolbox
   \\    /   O peration     | Website:  https://openfoam.org
    \\  /    A nd           | Version:  10
     \\/     M anipulation  |
\*---------------------------------------------------------------------------*/
FoamFile
{
    format      ascii;
    class       polyBoundaryMesh;
    location    "constant/polyMesh";
    object      boundary;
}
// * * * * * * * * * * * * * * * * * * * * * * * * * * * * * * * * * * * * * //

6
(
    top
    {
        type            patch;
        nFaces          5;
        startFace       40;
    }
    left
    {
        type            wall;
        inGroups        List<word> 1(wall);
        nFaces          5;
        startFace       45;
    }
    right
    {
        type            patch;
        nFaces          5;
        startFace       50;
    }
    bottom
    {
        type            wall;
        inGroups        List<word> 1(wall);
        nFaces          5;
        startFace       55;
    }
    front
    {
        type            empty;
        inGroups        List<word> 1(empty);
        nFaces          25;
        startFace       60;
    }
    back
    {
        type            empty;
        inGroups        List<word> 1(empty);
        nFaces          25;
        startFace       85;
    }
)

// ************************************************************************* //
