/*--------------------------------*- C++ -*----------------------------------*\
  =========                 |
  \\      /  F ield         | OpenFOAM: The Open Source CFD Toolbox
   \\    /   O peration     | Website:  https://openfoam.org
    \\  /    A nd           | Version:  10
     \\/     M anipulation  |
\*---------------------------------------------------------------------------*/
FoamFile
{
    format      ascii;
    class       dictionary;
    location    "system";
    object      fvSolution;
}
// * * * * * * * * * * * * * * * * * * * * * * * * * * * * * * * * * * * * * //

solvers
{
    "alpha.*"
    {
        nAlphaCorr      1;
        nAlphaSubCycles 2;
        cAlpha          1;

        solver          smoothSolver;
        smoother        GaussSeidel;
        tolerance       1e-10;
        relTol          0;
        minIter         1;
    }

    p_rgh
    {
        solver          GAMG;
        smoother        symGaussSeidel;
        tolerance       1e-12;
        relTol          0.05;
        nPreSweeps      2;
        nPostSweeps     3;
    }

    p_rghFinal
    {
        $p_rgh;
        relTol          0;
    }
    
    "pcorr.*"
    {
        $p_rghFinal;
        tolerance       1e-12;
    }
    
    T
    {
        solver          PBiCGStab;
        preconditioner  DILU;
        tolerance       1e-08;
        relTol          0.05;
    }

    TFinal
    {
        $T;
        relTol          0.0;
    }
}

PIMPLE
{
    momentumPredictor no;
    nCorrectors     3;
    nNonOrthogonalCorrectors 1;
    nOuterCorrectors 1;
    
    T0  300.0;
    DC  100000;
}

// ************************************************************************* //