/*--------------------------------*- C++ -*----------------------------------*\
  =========                 |
  \\      /  F ield         | OpenFOAM: The Open Source CFD Toolbox
   \\    /   O peration     | Website:  https://openfoam.org
    \\  /    A nd           | Version:  10
     \\/     M anipulation  |
\*---------------------------------------------------------------------------*/
FoamFile
{
    format      ascii;
    class       dictionary;
    location    "constant";
    object      fvModels;
}
// * * * * * * * * * * * * * * * * * * * * * * * * * * * * * * * * * * * * * //

laser1
{
    type      laserDTRM;

    centre    (7.5e-4 2.5e-4 5e-5);
    radius    1e-4;
    direction (0 0 -1);
    Q         1;    
    nRays     250;
    relax     1.0;
    absorption 1.0;
}

//************************************************************************* //
