/*--------------------------------*- C++ -*----------------------------------*\
  =========                 |
  \\      /  F ield         | OpenFOAM: The Open Source CFD Toolbox
   \\    /   O peration     | Website:  https://openfoam.org
    \\  /    A nd           | Version:  9
     \\/     M anipulation  |
\*---------------------------------------------------------------------------*/
FoamFile
{
    format      ascii;
    class       dictionary;
    location    "system";
    object      controlDict;
}
// * * * * * * * * * * * * * * * * * * * * * * * * * * * * * * * * * * * * * //

application     interThermoMixingFoam;

startFrom       startTime;

startTime       0;

stopAt          endTime;

endTime         1e-6;

deltaT          1e-8;

writeControl    adjustableRunTime;

writeInterval   1e-6;

purgeWrite      0;

writeFormat     ascii;

writePrecision  6;

writeCompression off;

timeFormat      general;

timePrecision   6;

runTimeModifiable yes;

adjustTimeStep  yes;

maxCo           0.2;
maxAlphaCo      0.2;
maxDi           100.0;

maxDeltaT       2e-08;

libs
(
    "libspheresToCell.so"
);


// ************************************************************************* //

OptimisationSwitches
{
    fileHandler collated;
}

functions
{
    divU
    {
        type            div;
        libs            ("libfieldFunctionObjects.so");

        writeControl    writeTime;
        writeFields     true;
        regionType      all;

        result          divU;

        field           phi;
    }

    sum
    {
        type            add;
        libs            ("libfieldFunctionObjects.so");

        writeControl    writeTime;
        writeFields     true;
        regionType      all;

        result          alphaMetal;

        fields          (alpha.steel alpha.copper);
    }

    mult
    {
        type            multiply;
        libs            ("libfieldFunctionObjects.so");

        writeControl    writeTime;
        writeFields     true;
        regionType      all;

        result          TalphaMetal;

        fields          (T alphaMetal);
    }

    maxValue
    {
        type            volFieldValue;
        libs            ("libfieldFunctionObjects.so");
        log             true;
        writeControl    writeTime;//timeStep;
        writeFields     false;
        regionType      all;
        operation       maxMag;

        fields (p_rgh U T TalphaMetal divU);
    }
}