/*--------------------------------*- C++ -*----------------------------------*\
  =========                 |
  \\      /  F ield         | OpenFOAM: The Open Source CFD Toolbox
   \\    /   O peration     | Website:  https://openfoam.org
    \\  /    A nd           | Version:  9
     \\/     M anipulation  |
\*---------------------------------------------------------------------------*/
FoamFile
{
    format      ascii;
    class       volScalarField;
    object      T;
}
// * * * * * * * * * * * * * * * * * * * * * * * * * * * * * * * * * * * * * //

dimensions      [0 0 0 1 0 0 0];

internalField   #codeStream
{
    codeInclude
    #{
        #include "fvCFD.H"
    #};

    codeOptions
    #{
        -I$(LIB_SRC)/finiteVolume/lnInclude \
        -I$(LIB_SRC)/meshTools/lnInclude
    #};
    
    codeLibs
    #{
        -lmeshTools \
        -lfiniteVolume
    #};

    code
    #{
        const IOdictionary& d = static_cast<const IOdictionary&>(dict);
        const fvMesh& mesh = refCast<const fvMesh>(d.db());

        scalarField T(mesh.nCells(), 0.0);
        scalarField X(mesh.C().component(0));
        forAll(T, cellI)
        {
            T[cellI] = 300.0 + (0.0005 - X[cellI]) * 4000.0;
            Info<< X[cellI] << " : " << T[cellI] << endl;
        }

        writeEntry(os, "", T);
    #};
};

boundaryField
{
    top
    {
        type            zeroGradient;
    }

    right
    {
        type           fixedValue;
        value          uniform 298;
    }
    
    left
    {
        type           fixedValue;
        value          uniform 302;
    }

    bottom
    {
        type           zeroGradient;
    }

    frontAndBack
    {
        type            empty;
    }
}


// ************************************************************************* //
