/*--------------------------------*- C++ -*----------------------------------*\
  =========                 |
  \\      /  F ield         | OpenFOAM: The Open Source CFD Toolbox
   \\    /   O peration     | Website:  https://openfoam.org
    \\  /    A nd           | Version:  10
     \\/     M anipulation  |
\*---------------------------------------------------------------------------*/
FoamFile
{
    format      ascii;
    class       polyBoundaryMesh;
    location    "constant/polyMesh";
    object      boundary;
}
// * * * * * * * * * * * * * * * * * * * * * * * * * * * * * * * * * * * * * //

7
(
    top
    {
        type            patch;
        nFaces          40;
        startFace       1540;
    }
    left
    {
        type            wall;
        inGroups        List<word> 1(wall);
        nFaces          20;
        startFace       1580;
    }
    right
    {
        type            wall;
        inGroups        List<word> 1(wall);
        nFaces          20;
        startFace       1600;
    }
    bottom
    {
        type            wall;
        inGroups        List<word> 1(wall);
        nFaces          40;
        startFace       1620;
    }
    front
    {
        type            empty;
        inGroups        List<word> 1(empty);
        nFaces          0;
        startFace       1660;
    }
    back
    {
        type            empty;
        inGroups        List<word> 1(empty);
        nFaces          0;
        startFace       1660;
    }
    frontAndBack
    {
        type            empty;
        inGroups        List<word> 1(empty);
        nFaces          1600;
        startFace       1660;
    }
)

// ************************************************************************* //
