/*--------------------------------*- C++ -*----------------------------------*\
  =========                 |
  \\      /  F ield         | OpenFOAM: The Open Source CFD Toolbox
   \\    /   O peration     | Website:  https://openfoam.org
    \\  /    A nd           | Version:  10
     \\/     M anipulation  |
\*---------------------------------------------------------------------------*/
FoamFile
{
    format      ascii;
    class       polyBoundaryMesh;
    location    "constant/polyMesh";
    object      boundary;
}
// * * * * * * * * * * * * * * * * * * * * * * * * * * * * * * * * * * * * * //

7
(
    top
    {
        type            wall;
        inGroups        List<word> 1(wall);
        nFaces          240;
        startFace       95560;
    }
    left
    {
        type            wall;
        inGroups        List<word> 1(wall);
        nFaces          200;
        startFace       95800;
    }
    right
    {
        type            wall;
        inGroups        List<word> 1(wall);
        nFaces          200;
        startFace       96000;
    }
    bottom
    {
        type            wall;
        inGroups        List<word> 1(wall);
        nFaces          240;
        startFace       96200;
    }
    front
    {
        type            empty;
        inGroups        List<word> 1(empty);
        nFaces          0;
        startFace       96440;
    }
    back
    {
        type            empty;
        inGroups        List<word> 1(empty);
        nFaces          0;
        startFace       96440;
    }
    frontAndBack
    {
        type            empty;
        inGroups        List<word> 1(empty);
        nFaces          96000;
        startFace       96440;
    }
)

// ************************************************************************* //
