/*--------------------------------*- C++ -*----------------------------------*\
  =========                 |
  \\      /  F ield         | OpenFOAM: The Open Source CFD Toolbox
   \\    /   O peration     | Website:  https://openfoam.org
    \\  /    A nd           | Version:  10
     \\/     M anipulation  |
\*---------------------------------------------------------------------------*/
FoamFile
{
    format      ascii;
    class       volScalarField;
    object      T;
}
// * * * * * * * * * * * * * * * * * * * * * * * * * * * * * * * * * * * * * //

dimensions      [0 0 0 1 0 0 0];

internalField   uniform 300;

boundaryField
{
    leftWall
    {
        type            fixedValue;
        value		    uniform 300;
    }

    rightWall
    {
        type            fixedValue;
        value		    uniform 300;
    }

    lowerWall
    {
        type            fixedValue;
        value		    uniform 300;
    }

    atmosphere
    {
        type            inletOutlet;
        value		    uniform 300;
        inletValue	    uniform 300;
    }

    defaultFaces
    {
        type            empty;
    }
}

// ************************************************************************* //
